<?xml version="1.0" encoding="UTF-8"?>
<!DOCTYPE network SYSTEM "http://www.matsim.org/files/dtd/network_v2.dtd">
<network>

<!-- ====================================================================== -->

	<nodes>
		<node id="10002192851" x="-1.443691940418536E7" y="3986161.341669188" >
		</node>
		<node id="10008038221" x="-1.43919484626477E7" y="3981505.4219221356" >
		</node>
		<node id="10008038222" x="-1.4391983606267808E7" y="3981557.876594163" >
		</node>
		<node id="10008038223" x="-1.4392018569662713E7" y="3981553.409694918" >
		</node>
		<node id="10008038224" x="-1.4391983888676105E7" y="3981501.27585498" >
		</node>
		<node id="10008038225" x="-1.4390552515319444E7" y="3980224.7597110807" >
		</node>
		<node id="10008038226" x="-1.439052027694577E7" y="3980162.4460955844" >
		</node>
		<node id="10008038227" x="-1.439051093446335E7" y="3980166.8510004883" >
		</node>
		<node id="10008038228" x="-1.439060800105099E7" y="3980203.268814755" >
		</node>
		<node id="10008038229" x="-1.4390596613676159E7" y="3980208.684432449" >
		</node>
		<node id="10008038230" x="-1.439055095539771E7" y="3980152.1007068898" >
		</node>
		<node id="10011376434" x="-1.4439703836142402E7" y="3977494.498971543" >
		</node>
		<node id="10011640972" x="-1.4445027829051245E7" y="3987834.696994337" >
		</node>
		<node id="10015669956" x="-1.4439821732779346E7" y="3978575.4397230907" >
		</node>
		<node id="10017659301" x="-1.4440170132854111E7" y="3986061.1023399434" >
		</node>
		<node id="10017931167" x="-1.4439072875992162E7" y="3964396.7231668774" >
		</node>
		<node id="10018297998" x="-1.4439726416332662E7" y="3982481.222827058" >
		</node>
		<node id="10024034778" x="-1.4444842172539685E7" y="3986283.7034666715" >
		</node>
		<node id="10024385561" x="-1.4439545509713981E7" y="3977687.1232320294" >
		</node>
		<node id="10024599729" x="-1.4431196224067148E7" y="3957182.4370804415" >
		</node>
		<node id="10026383784" x="-1.444037276738166E7" y="3999140.4602077752" >
		</node>
		<node id="10029271453" x="-1.4451606178909412E7" y="3986000.105106501" >
		</node>
		<node id="1003337748" x="-1.4447845908511017E7" y="4015173.4747437574" >
		</node>
		<node id="1003337751" x="-1.444785293097232E7" y="4015454.5209465623" >
		</node>
		<node id="1003337754" x="-1.4447865990000613E7" y="4015622.682607527" >
		</node>
		<node id="1003337756" x="-1.444791044728093E7" y="4015689.690576022" >
		</node>
		<node id="1003380315" x="-1.4448012698655626E7" y="4015621.4040724197" >
		</node>
		<node id="1003380319" x="-1.4447978262283849E7" y="4015557.6203523176" >
		</node>
		<node id="1003380325" x="-1.4447872438742127E7" y="4015515.4116148604" >
		</node>
		<node id="1003380335" x="-1.4447876719994586E7" y="4015566.310219694" >
		</node>
		<node id="1003380336" x="-1.4447974641516374E7" y="4015506.807220169" >
		</node>
		<node id="10038619053" x="-1.4442371029754987E7" y="4013975.6901598247" >
		</node>
		<node id="10038841838" x="-1.4443415547369795E7" y="3989982.1544221323" >
		</node>
		<node id="10039298305" x="-1.4460505660001451E7" y="3984793.01475785" >
		</node>
		<node id="10039673048" x="-1.4441899070789702E7" y="3986455.3630500305" >
		</node>
		<node id="10060890685" x="-1.4438465316522256E7" y="3965049.8482596274" >
		</node>
		<node id="10066803187" x="-1.4453388979571622E7" y="3985814.3045927803" >
		</node>
		<node id="10072730943" x="-1.4437652043616623E7" y="3966937.117352873" >
		</node>
		<node id="10072872311" x="-1.4438189127502225E7" y="3970421.7543267794" >
		</node>
		<node id="10074981981" x="-1.4438405082672266E7" y="3970952.438160479" >
		</node>
		<node id="10076272764" x="-1.4434162275008515E7" y="3978544.7932155617" >
		</node>
		<node id="10076571252" x="-1.4442000428480003E7" y="3995216.6314101946" >
		</node>
		<node id="10076795713" x="-1.44445132666598E7" y="4000827.0762035353" >
		</node>
		<node id="10079363474" x="-1.4443486689543834E7" y="3996105.780053069" >
		</node>
		<node id="10079480603" x="-1.4450621210593024E7" y="4017762.234168362" >
		</node>
		<node id="10081842086" x="-1.4438383795521045E7" y="3965320.600688624" >
		</node>
		<node id="10082122160" x="-1.4444474036957597E7" y="3966279.059461515" >
		</node>
		<node id="10092331615" x="-1.4473325800455693E7" y="3984766.5970600313" >
		</node>
		<node id="10092331616" x="-1.4473213437073886E7" y="3984791.242800643" >
		</node>
		<node id="10093648144" x="-1.4441991718259089E7" y="3996331.5446790894" >
		</node>
		<node id="10093661027" x="-1.4452790216861865E7" y="4019541.2333203848" >
		</node>
		<node id="10093661028" x="-1.44528259205432E7" y="4019536.316054136" >
		</node>
		<node id="10093661029" x="-1.4453373502956467E7" y="4027139.558422274" >
		</node>
		<node id="10093661030" x="-1.4453347855280915E7" y="4027129.473044692" >
		</node>
		<node id="10095378438" x="-1.444454160123122E7" y="3999509.5925135203" >
		</node>
		<node id="10097190286" x="-1.4400578483587425E7" y="3988688.7054184894" >
		</node>
		<node id="10097871671" x="-1.4399120701707024E7" y="3988870.9298555315" >
		</node>
		<node id="10098076311" x="-1.4396840075926997E7" y="3989052.2540608863" >
		</node>
		<node id="10098167973" x="-1.4394315952962158E7" y="3986472.3873811606" >
		</node>
		<node id="10100604849" x="-1.445573198555267E7" y="4033333.695438941" >
		</node>
		<node id="10100940903" x="-1.444023076367254E7" y="4004995.0466818935" >
		</node>
		<node id="10108106770" x="-1.443903864166015E7" y="3974317.482597572" >
		</node>
		<node id="10108538384" x="-1.444839057191103E7" y="3984986.8288918147" >
		</node>
		<node id="10108538385" x="-1.4448154550775027E7" y="3983650.07970243" >
		</node>
		<node id="10108538386" x="-1.44481920220546E7" y="3982388.9786903323" >
		</node>
		<node id="10108538387" x="-1.4448110246511975E7" y="3981069.552644337" >
		</node>
		<node id="10108538388" x="-1.4447831487721032E7" y="3979394.6291711144" >
		</node>
		<node id="10110213709" x="-1.4447174386653759E7" y="3972759.108494139" >
		</node>
		<node id="10110213710" x="-1.444717791083736E7" y="3972812.2474958305" >
		</node>
		<node id="10110213712" x="-1.4447920334862327E7" y="3979547.958481019" >
		</node>
		<node id="10111525087" x="-1.4448175473080555E7" y="3983530.9178268886" >
		</node>
		<node id="10111525088" x="-1.4448154840547232E7" y="3982223.3991670953" >
		</node>
		<node id="10111525090" x="-1.4448079484514315E7" y="3980933.7210985487" >
		</node>
		<node id="10114066218" x="-1.444725368974455E7" y="3974679.0380437006" >
		</node>
		<node id="10114622035" x="-1.4444500294951858E7" y="3966293.011587086" >
		</node>
		<node id="10114622036" x="-1.4444591332702182E7" y="3966287.7974813767" >
		</node>
		<node id="10126131053" x="-1.443092096783723E7" y="3979067.4223621283" >
		</node>
		<node id="10127531964" x="-1.4432669669080835E7" y="3978728.0925346576" >
		</node>
		<node id="10127681621" x="-1.4447276386390192E7" y="3970680.525073103" >
		</node>
		<node id="10129955300" x="-1.4417798799736757E7" y="3947170.888480861" >
		</node>
		<node id="10130233356" x="-1.4418187785989458E7" y="3947572.5443652244" >
		</node>
		<node id="1013077312" x="-1.4445360409367848E7" y="3989282.9035170716" >
		</node>
		<node id="1013077364" x="-1.4445051205761041E7" y="3988077.6994557064" >
		</node>
		<node id="1013077384" x="-1.4445061290006286E7" y="3987170.9008814795" >
		</node>
		<node id="1013077405" x="-1.4445249347973311E7" y="3984152.416383492" >
		</node>
		<node id="10131871840" x="-1.4448680495299347E7" y="3986224.2473290716" >
		</node>
		<node id="10140069623" x="-1.4439254911416482E7" y="3974759.790901627" >
		</node>
		<node id="10140069624" x="-1.4439233885954253E7" y="3974730.983450921" >
		</node>
		<node id="10140069625" x="-1.4439035290998511E7" y="3974283.05521654" >
		</node>
		<node id="10140069626" x="-1.4439044336131299E7" y="3974058.9913661936" >
		</node>
		<node id="10142916074" x="-1.4439271360542217E7" y="3974617.1729932637" >
		</node>
		<node id="10142916075" x="-1.443959862817906E7" y="3975546.441111869" >
		</node>
		<node id="10147436753" x="-1.443769503957403E7" y="3967313.988040208" >
		</node>
		<node id="10147436760" x="-1.4437872636204803E7" y="3968832.6910360563" >
		</node>
		<node id="10147436762" x="-1.443785112590461E7" y="3968640.784591368" >
		</node>
		<node id="10148274542" x="-1.4439252047187844E7" y="3966687.4329350567" >
		</node>
		<node id="10161173071" x="-1.4398746013013458E7" y="3989078.261035517" >
		</node>
		<node id="10188452441" x="-1.4440072141940901E7" y="3966248.4485053243" >
		</node>
		<node id="10220000382" x="-1.4449147179918977E7" y="3989004.672877711" >
		</node>
		<node id="10220000385" x="-1.4449137551458856E7" y="3989006.5254040454" >
		</node>
		<node id="10220000386" x="-1.4449151939799473E7" y="3989061.9529866683" >
		</node>
		<node id="10220000387" x="-1.4449140921792163E7" y="3989064.2693128544" >
		</node>
		<node id="10223479948" x="-1.443972789045755E7" y="3976129.4110695766" >
		</node>
		<node id="10225510385" x="-1.4445116314459644E7" y="3987550.6230720747" >
		</node>
		<node id="1025840246" x="-1.44420365918142E7" y="4010961.893477061" >
		</node>
		<node id="1025840251" x="-1.4442043740317311E7" y="4011009.0413550306" >
		</node>
		<node id="1025840255" x="-1.444200952811862E7" y="4010960.1202818183" >
		</node>
		<node id="10264425407" x="-1.4445268120193236E7" y="3983922.105124743" >
		</node>
		<node id="1027676477" x="-1.4441354174318612E7" y="4009873.9064884176" >
		</node>
		<node id="10295120931" x="-1.4439679487667488E7" y="3982105.4893178544" >
		</node>
		<node id="10299907035" x="-1.444256658158454E7" y="4011986.3307066304" >
		</node>
		<node id="10300550687" x="-1.4402157894989936E7" y="3985891.04249617" >
		</node>
		<node id="10300550690" x="-1.4402144958318342E7" y="3985980.6712804516" >
		</node>
		<node id="10300550693" x="-1.4402161208236216E7" y="3985960.348940858" >
		</node>
		<node id="10302240717" x="-1.4399067683902113E7" y="3984036.230503391" >
		</node>
		<node id="10302240719" x="-1.439940753907713E7" y="3984452.935890927" >
		</node>
		<node id="10302240726" x="-1.43991732522147E7" y="3984172.9587448216" >
		</node>
		<node id="10313134680" x="-1.4402370111868909E7" y="3988822.102661162" >
		</node>
		<node id="10539656544" x="-1.4445019824760381E7" y="3987575.5902798367" >
		</node>
		<node id="10539656545" x="-1.4445117784629138E7" y="3987762.0651678657" >
		</node>
		<node id="10564302634" x="-1.4440728278398693E7" y="3988635.586478513" >
		</node>
		<node id="10566978220" x="-1.4438871197142996E7" y="3972042.699616961" >
		</node>
		<node id="10593109862" x="-1.4439825673641445E7" y="3977195.7309780554" >
		</node>
		<node id="10593194057" x="-1.4441462180116702E7" y="3989587.7895334647" >
		</node>
		<node id="10593214609" x="-1.4443977412429253E7" y="3986332.2285338496" >
		</node>
		<node id="10594454198" x="-1.4447285421142137E7" y="3975760.322836983" >
		</node>
		<node id="10594454199" x="-1.444727369197493E7" y="3975625.102051266" >
		</node>
		<node id="10698125084" x="-1.444122416215982E7" y="3991623.5918006646" >
		</node>
		<node id="10699903579" x="-1.4437685495637028E7" y="3967033.8214417887" >
		</node>
		<node id="10699903581" x="-1.443775635041175E7" y="3967051.9266157863" >
		</node>
		<node id="10711273238" x="-1.4454802707857493E7" y="4031897.956903841" >
		</node>
		<node id="10711273247" x="-1.4454734246187717E7" y="4031709.4536497486" >
		</node>
		<node id="10711273261" x="-1.4454605439381454E7" y="4031796.403513711" >
		</node>
		<node id="10711282327" x="-1.4455998640671434E7" y="4037301.914039735" >
		</node>
		<node id="10711294121" x="-1.4459622752513155E7" y="4047247.7114396137" >
		</node>
		<node id="10711316942" x="-1.4455971025995445E7" y="4033945.4970773207" >
		</node>
		<node id="10711316945" x="-1.4455840227756957E7" y="4033786.4564068546" >
		</node>
		<node id="10711326705" x="-1.4454439476326523E7" y="4030473.133507584" >
		</node>
		<node id="10711343137" x="-1.4397275013464915E7" y="3989790.1616084324" >
		</node>
		<node id="10711343142" x="-1.439734859782326E7" y="3989578.870282363" >
		</node>
		<node id="10745304876" x="-1.4405517604805252E7" y="3954954.503114014" >
		</node>
		<node id="10745304881" x="-1.4405415346351504E7" y="3954986.7740484127" >
		</node>
		<node id="1081039031" x="-1.4453701659742901E7" y="4054271.203385946" >
		</node>
		<node id="1081041027" x="-1.445400767741032E7" y="4053724.4773111767" >
		</node>
		<node id="1081041041" x="-1.4453710826791702E7" y="4054249.0828243843" >
		</node>
		<node id="1081504796" x="-1.4449707122794619E7" y="4058960.0998793584" >
		</node>
		<node id="10816836196" x="-1.440162593550502E7" y="3957080.6571490634" >
		</node>
		<node id="10816836197" x="-1.4401636858753493E7" y="3957054.569664538" >
		</node>
		<node id="10860485414" x="-1.436924286271325E7" y="3952390.932859031" >
		</node>
		<node id="10867693640" x="-1.4438278791697584E7" y="3970326.9983648146" >
		</node>
		<node id="10867693642" x="-1.4438193213240968E7" y="3970145.825608338" >
		</node>
		<node id="10870883066" x="-1.4437822433374597E7" y="3969254.217420128" >
		</node>
		<node id="10870883067" x="-1.443788816845314E7" y="3969441.1667667674" >
		</node>
		<node id="1088782196" x="-1.4380478208569035E7" y="3963770.214331191" >
		</node>
		<node id="10889532124" x="-1.4438181569023632E7" y="3970379.5217896635" >
		</node>
		<node id="10905144761" x="-1.445477674287192E7" y="4021116.5236227945" >
		</node>
		<node id="10905144766" x="-1.4454748009327943E7" y="4021093.958805821" >
		</node>
		<node id="10959274212" x="-1.4441097266795967E7" y="3989074.7720730826" >
		</node>
		<node id="10961076354" x="-1.4447224113402931E7" y="3975805.6932839793" >
		</node>
		<node id="10961136347" x="-1.4447199131515516E7" y="3973833.1580561916" >
		</node>
		<node id="10961313781" x="-1.444749734691971E7" y="3978573.889371034" >
		</node>
		<node id="10962898616" x="-1.444728829177861E7" y="3974085.7104687677" >
		</node>
		<node id="10965502197" x="-1.4447777978656327E7" y="3970158.00211757" >
		</node>
		<node id="10970194482" x="-1.4447403686474847E7" y="3978376.115595935" >
		</node>
		<node id="10970438622" x="-1.4447052565700643E7" y="3971504.619749322" >
		</node>
		<node id="10970600442" x="-1.4455010902801184E7" y="4021129.5024019107" >
		</node>
		<node id="10972448026" x="-1.444770416623607E7" y="3969937.8423563954" >
		</node>
		<node id="10972480260" x="-1.4449862698703961E7" y="4017062.855581587" >
		</node>
		<node id="10972786861" x="-1.4447676619511781E7" y="3968941.9078214536" >
		</node>
		<node id="10976450889" x="-1.4442513252036206E7" y="4012020.933084948" >
		</node>
		<node id="10983679779" x="-1.4410134720590621E7" y="3937191.626232883" >
		</node>
		<node id="10983774785" x="-1.444271493215402E7" y="4016676.2557893377" >
		</node>
		<node id="10991855570" x="-1.442973667462102E7" y="4023597.4818885326" >
		</node>
		<node id="10991890910" x="-1.446908128062369E7" y="3987189.77766462" >
		</node>
		<node id="10991896928" x="-1.4427850428985337E7" y="4022830.6973399282" >
		</node>
		<node id="10991911491" x="-1.4389912658711309E7" y="3979595.928253439" >
		</node>
		<node id="10994055942" x="-1.4410237836907413E7" y="3938145.264464561" >
		</node>
		<node id="11036999725" x="-1.4442787927383225E7" y="4020673.684410706" >
		</node>
		<node id="11049038545" x="-1.4364213055187108E7" y="3921655.8345217328" >
		</node>
		<node id="11049038546" x="-1.4363984773512917E7" y="3921594.2426466485" >
		</node>
		<node id="11049038547" x="-1.436388623865783E7" y="3921567.206911189" >
		</node>
		<node id="11049270405" x="-1.4391115621440722E7" y="3924223.825752192" >
		</node>
		<node id="11049270406" x="-1.4390337362941325E7" y="3924150.9501508693" >
		</node>
		<node id="11049270407" x="-1.4378421093967186E7" y="3923513.2561166496" >
		</node>
		<node id="11049270408" x="-1.4377076018421E7" y="3923101.973414094" >
		</node>
		<node id="11049270409" x="-1.4376769496505715E7" y="3923015.9052310074" >
		</node>
		<node id="11049270410" x="-1.4375487280065935E7" y="3922645.404267474" >
		</node>
		<node id="11049270411" x="-1.4373084532542657E7" y="3922032.055605476" >
		</node>
		<node id="11049270412" x="-1.4366316572620029E7" y="3921964.768834999" >
		</node>
		<node id="11051475307" x="-1.4404073446479972E7" y="3931432.7082678704" >
		</node>
		<node id="11051475308" x="-1.4403645814414691E7" y="3931211.7550122757" >
		</node>
		<node id="11051475309" x="-1.4403230322481172E7" y="3931006.160846345" >
		</node>
		<node id="11051475310" x="-1.4396644108340085E7" y="3927368.3852766748" >
		</node>
		<node id="11051475311" x="-1.4396343428009544E7" y="3927328.122726091" >
		</node>
		<node id="11051516216" x="-1.44522355273643E7" y="4062108.6131992736" >
		</node>
		<node id="11051516277" x="-1.4450166993323438E7" y="4059553.526467911" >
		</node>
		<node id="11051516281" x="-1.4450543193690887E7" y="4059889.190415569" >
		</node>
		<node id="11051516282" x="-1.4450558903697506E7" y="4059882.234129848" >
		</node>
		<node id="11053505905" x="-1.4409752241735345E7" y="3934580.4468088686" >
		</node>
		<node id="11053505906" x="-1.4409773591201015E7" y="3934593.32874181" >
		</node>
		<node id="11053505908" x="-1.4409711591825366E7" y="3934555.92931959" >
		</node>
		<node id="11053505913" x="-1.4409607232838461E7" y="3934497.8672605567" >
		</node>
		<node id="11053505914" x="-1.440956186685114E7" y="3934471.314640798" >
		</node>
		<node id="11053505915" x="-1.4409444974219108E7" y="3934403.8364885803" >
		</node>
		<node id="11053505916" x="-1.440943184012934E7" y="3934396.271479305" >
		</node>
		<node id="11053505917" x="-1.440938461806358E7" y="3934369.062568172" >
		</node>
		<node id="11053505918" x="-1.4409357113715198E7" y="3934353.2136536343" >
		</node>
		<node id="11053505919" x="-1.4409201080845175E7" y="3934260.8213985977" >
		</node>
		<node id="11053505920" x="-1.4408190022982286E7" y="3933333.162376536" >
		</node>
		<node id="11053505921" x="-1.4406345851624891E7" y="3932620.348350455" >
		</node>
		<node id="11053505922" x="-1.4406334358381307E7" y="3932615.9118601573" >
		</node>
		<node id="11053505923" x="-1.440629977175272E7" y="3932602.5816169875" >
		</node>
		<node id="11053505924" x="-1.4406137055243172E7" y="3932539.496824831" >
		</node>
		<node id="11053505925" x="-1.4406154583104964E7" y="3932546.2877263245" >
		</node>
		<node id="11053505926" x="-1.440612482591326E7" y="3932534.7615227276" >
		</node>
		<node id="11053505927" x="-1.4406091619906092E7" y="3932521.9079531073" >
		</node>
		<node id="11053505928" x="-1.4404875368391464E7" y="3932050.5397457816" >
		</node>
		<node id="11053505929" x="-1.4404813652106114E7" y="3932026.6957411924" >
		</node>
		<node id="11053505930" x="-1.4404564047595613E7" y="3931930.92040622" >
		</node>
		<node id="11053505931" x="-1.4404501237738136E7" y="3931906.6269357125" >
		</node>
		<node id="11059788217" x="-1.4361914265229803E7" y="3920114.577007198" >
		</node>
		<node id="11059788218" x="-1.4361937215501374E7" y="3920314.6498026405" >
		</node>
		<node id="11060698311" x="-1.4411936880698122E7" y="3946403.4334086003" >
		</node>
		<node id="11060698314" x="-1.4411830499057036E7" y="3947556.7460337873" >
		</node>
		<node id="11066410582" x="-1.438912218757292E7" y="4008405.3817259986" >
		</node>
		<node id="11076024260" x="-1.4461893289475886E7" y="3984709.531763664" >
		</node>
		<node id="11117993788" x="-1.4412161487641916E7" y="3942461.8505009506" >
		</node>
		<node id="11121985760" x="-1.4455957506570868E7" y="4034737.552442641" >
		</node>
		<node id="11196218759" x="-1.4454962400037913E7" y="4021067.5020974795" >
		</node>
		<node id="11197017536" x="-1.4445484638021631E7" y="4010248.961222573" >
		</node>
		<node id="1120174912" x="-1.4408768488381976E7" y="3933840.642105632" >
		</node>
		<node id="11216197204" x="-1.4411822054826692E7" y="3943967.221168665" >
		</node>
		<node id="11240512693" x="-1.4480298094913665E7" y="3977273.585134889" >
		</node>
		<node id="11240512694" x="-1.4480300837389376E7" y="3977285.9507906185" >
		</node>
		<node id="11244316332" x="-1.4399220288028069E7" y="3984257.175813953" >
		</node>
		<node id="11270882990" x="-1.445486175159341E7" y="4024835.145490406" >
		</node>
		<node id="11415855013" x="-1.440967242106315E7" y="3934534.48844948" >
		</node>
		<node id="11476616551" x="-1.4447619754757436E7" y="3967959.655620457" >
		</node>
		<node id="11495514549" x="-1.4454840656600278E7" y="4014963.1872514477" >
		</node>
		<node id="11495677878" x="-1.4416736793313907E7" y="3951059.4069508556" >
		</node>
		<node id="11495677880" x="-1.4416750933604334E7" y="3951050.4743671063" >
		</node>
		<node id="11500581183" x="-1.445342115845883E7" y="3985181.453651245" >
		</node>
		<node id="11560169344" x="-1.444939153919595E7" y="4023892.595762544" >
		</node>
		<node id="11560173648" x="-1.444139400822913E7" y="3991798.64082798" >
		</node>
		<node id="11560176590" x="-1.4442782052082893E7" y="4019267.0587292346" >
		</node>
		<node id="1173940983" x="-1.443817338115321E7" y="3970104.485567933" >
		</node>
		<node id="1173975086" x="-1.4444499787928594E7" y="3986292.915534957" >
		</node>
		<node id="1173975116" x="-1.4444318563495211E7" y="3986282.670220447" >
		</node>
		<node id="11796213588" x="-1.4447580753146356E7" y="3967312.255831141" >
		</node>
		<node id="11875710299" x="-1.445495651911642E7" y="4024384.176178452" >
		</node>
		<node id="11932941567" x="-1.4441494741931308E7" y="3989675.8779821815" >
		</node>
		<node id="11932968879" x="-1.4441484020953175E7" y="3989675.6757052517" >
		</node>
		<node id="11932968884" x="-1.4441499416750897E7" y="3989684.0691079586" >
		</node>
		<node id="12008521387" x="-1.4397363278763283E7" y="3989573.0035804408" >
		</node>
		<node id="12008521388" x="-1.4397439440590113E7" y="3989658.33371022" >
		</node>
		<node id="12060847438" x="-1.4448121663335819E7" y="3981254.29705228" >
		</node>
		<node id="12094278022" x="-1.440245731383263E7" y="3989007.584915575" >
		</node>
		<node id="12094310009" x="-1.4402122952829331E7" y="3988904.833127843" >
		</node>
		<node id="12099476424" x="-1.4438899583002243E7" y="4073658.2445113044" >
		</node>
		<node id="12151207575" x="-1.4447143649817178E7" y="3972559.9339991882" >
		</node>
		<node id="12158472823" x="-1.4438094437011054E7" y="4074698.751901497" >
		</node>
		<node id="12158508648" x="-1.4438125718999768E7" y="4074299.157027342" >
		</node>
		<node id="12175839365" x="-1.4398380965653462E7" y="3927755.8621776174" >
		</node>
		<node id="12177755985" x="-1.438003648009699E7" y="3924159.028284124" >
		</node>
		<node id="12177755986" x="-1.4379390143924959E7" y="3923913.8368938575" >
		</node>
		<node id="12177755987" x="-1.4384189396066949E7" y="3924657.980554446" >
		</node>
		<node id="12177755999" x="-1.4350320877062509E7" y="3920786.401401756" >
		</node>
		<node id="12178543688" x="-1.4396277863591347E7" y="3988541.815563654" >
		</node>
		<node id="12178543689" x="-1.4396937094157869E7" y="3989188.649588299" >
		</node>
		<node id="1218576975" x="-1.4441490731277363E7" y="3989685.7772725057" >
		</node>
		<node id="1218576977" x="-1.4441482774475072E7" y="3989687.8345253738" >
		</node>
		<node id="1218576986" x="-1.4441494929311866E7" y="3989674.015863681" >
		</node>
		<node id="1218576992" x="-1.4441490456052551E7" y="3989680.5156707168" >
		</node>
		<node id="1218576993" x="-1.444151754364993E7" y="3989681.1070740162" >
		</node>
		<node id="1218577008" x="-1.444148312309226E7" y="3989674.4197914083" >
		</node>
		<node id="1218577016" x="-1.444152738894401E7" y="3989685.5077971187" >
		</node>
		<node id="12195911101" x="-1.4455988733749129E7" y="4053081.3185353116" >
		</node>
		<node id="12204798570" x="-1.4455177192759292E7" y="4023668.8005470005" >
		</node>
		<node id="12209150839" x="-1.4440768901072837E7" y="4004045.8729939847" >
		</node>
		<node id="1318665049" x="-1.4387363137640478E7" y="3924370.5446442547" >
		</node>
		<node id="1318665051" x="-1.4373270506326409E7" y="3922220.206826756" >
		</node>
		<node id="1318665054" x="-1.436733642525452E7" y="3922009.23429576" >
		</node>
		<node id="1318665059" x="-1.4379208531165252E7" y="3923862.8842493235" >
		</node>
		<node id="1318665063" x="-1.437814836407462E7" y="3923413.8170024185" >
		</node>
		<node id="1318665065" x="-1.4376565603648443E7" y="3922957.6253049476" >
		</node>
		<node id="1327282917" x="-1.4398090855896743E7" y="3960777.076898205" >
		</node>
		<node id="1328443789" x="-1.4449060697861755E7" y="3986683.1049931305" >
		</node>
		<node id="1337828074" x="-1.4369537504353495E7" y="3952713.1553380005" >
		</node>
		<node id="1337828150" x="-1.4370879088687558E7" y="3956457.6423851196" >
		</node>
		<node id="1337828186" x="-1.4372195251342822E7" y="3957366.180300416" >
		</node>
		<node id="1338395288" x="-1.4441893130552454E7" y="4010754.1667616833" >
		</node>
		<node id="1338395319" x="-1.4439888179037139E7" y="4002201.3017366454" >
		</node>
		<node id="1338395328" x="-1.4441891405594116E7" y="4010789.8448569737" >
		</node>
		<node id="1341753240" x="-1.4453389627801144E7" y="3989925.947275137" >
		</node>
		<node id="1385864097" x="-1.443992466606757E7" y="3962621.395344867" >
		</node>
		<node id="1385864098" x="-1.4429419531570744E7" y="3985975.4547234615" >
		</node>
		<node id="1385864099" x="-1.4429606514604427E7" y="3986000.9212880335" >
		</node>
		<node id="1385864101" x="-1.443025158710462E7" y="3986586.6643703864" >
		</node>
		<node id="1385864102" x="-1.4445221133768942E7" y="3989173.778017296" >
		</node>
		<node id="1385864104" x="-1.4441120063505009E7" y="3990887.8384130253" >
		</node>
		<node id="1385864105" x="-1.4441204342690127E7" y="3991372.6369774053" >
		</node>
		<node id="1385864110" x="-1.4454582614991438E7" y="4031623.139976244" >
		</node>
		<node id="1395957582" x="-1.4444860428943088E7" y="3995865.1444611046" >
		</node>
		<node id="1468889934" x="-1.445422874452366E7" y="3989874.160830523" >
		</node>
		<node id="1468889935" x="-1.444163023363655E7" y="4010418.5308370427" >
		</node>
		<node id="1468889936" x="-1.4441795733839182E7" y="4010613.128658583" >
		</node>
		<node id="1468889938" x="-1.4460037604441844E7" y="4048326.5931305485" >
		</node>
		<node id="1468889939" x="-1.4460002995906597E7" y="4049251.55958549" >
		</node>
		<node id="1475680265" x="-1.4449039237455161E7" y="3986591.2762682918" >
		</node>
		<node id="1475680267" x="-1.4449367265920505E7" y="3987631.6418822138" >
		</node>
		<node id="1475680276" x="-1.444919870053101E7" y="3986898.8256705604" >
		</node>
		<node id="1476444249" x="-1.444751565742943E7" y="3978859.0069249123" >
		</node>
		<node id="1476444250" x="-1.4447313713745497E7" y="3977134.2661748677" >
		</node>
		<node id="1476444259" x="-1.4448175171917923E7" y="3983588.0664568655" >
		</node>
		<node id="1476444260" x="-1.4448053612809256E7" y="3980142.4989367235" >
		</node>
		<node id="1476444261" x="-1.4448899638553474E7" y="3985893.2172789364" >
		</node>
		<node id="1476444264" x="-1.4447390791663E7" y="3977897.602698722" >
		</node>
		<node id="1476444265" x="-1.4448162896631828E7" y="3984620.119916863" >
		</node>
		<node id="1476444274" x="-1.4448115384561874E7" y="3983778.1611301755" >
		</node>
		<node id="1476444284" x="-1.4448106248253362E7" y="3981013.7267102655" >
		</node>
		<node id="1476444286" x="-1.4448184765741263E7" y="3982292.0017984984" >
		</node>
		<node id="1476444300" x="-1.44473567905579E7" y="3977537.990012641" >
		</node>
		<node id="1476444302" x="-1.4448231361686362E7" y="3984824.135033639" >
		</node>
		<node id="1476444316" x="-1.444810492169063E7" y="3980998.2429078068" >
		</node>
		<node id="1476444325" x="-1.444884586388677E7" y="3985563.805821072" >
		</node>
		<node id="1476444343" x="-1.4448806295275671E7" y="3985487.5679308986" >
		</node>
		<node id="1476444355" x="-1.44480381220083E7" y="3979851.727022112" >
		</node>
		<node id="1476444361" x="-1.4448113119293613E7" y="3983835.5289245825" >
		</node>
		<node id="1476444364" x="-1.4448070702846648E7" y="3980233.9013257083" >
		</node>
		<node id="1476444370" x="-1.4448097594703335E7" y="3980860.0258646673" >
		</node>
		<node id="1476494728" x="-1.4447134094120689E7" y="3972323.5728365188" >
		</node>
		<node id="1476494729" x="-1.4447321944227692E7" y="3976859.413174623" >
		</node>
		<node id="1476494738" x="-1.444716847673195E7" y="3972650.0582716814" >
		</node>
		<node id="1476495502" x="-1.4447703047250528E7" y="3969395.065490782" >
		</node>
		<node id="1476551988" x="-1.4441730404266885E7" y="3966218.686856466" >
		</node>
		<node id="1476552008" x="-1.4447642307703342E7" y="3968676.0536488984" >
		</node>
		<node id="1476552023" x="-1.4443353709303895E7" y="3966407.941644843" >
		</node>
		<node id="1476552043" x="-1.44475296572396E7" y="3967053.141119627" >
		</node>
		<node id="1476573058" x="-1.4446765182695357E7" y="3966350.318572073" >
		</node>
		<node id="1476573061" x="-1.44477007528143E7" y="3969350.6829122948" >
		</node>
		<node id="1476573064" x="-1.4447010952149803E7" y="3966479.6164124664" >
		</node>
		<node id="1476573067" x="-1.4449349728626821E7" y="3987678.209792462" >
		</node>
		<node id="1476573070" x="-1.444751895959181E7" y="3966962.2222420718" >
		</node>
		<node id="1476573072" x="-1.444753757292032E7" y="3967001.3107234538" >
		</node>
		<node id="1476573083" x="-1.4446701142108142E7" y="3966326.7247801363" >
		</node>
		<node id="1476573090" x="-1.444738994341658E7" y="3966790.172643494" >
		</node>
		<node id="1476819382" x="-1.4437769231369589E7" y="3967053.8377800174" >
		</node>
		<node id="1476819401" x="-1.4439834696648344E7" y="3966330.0838015494" >
		</node>
		<node id="1476819416" x="-1.4441741576862082E7" y="3966204.5426322916" >
		</node>
		<node id="1476819443" x="-1.4442097504345117E7" y="3966342.234404994" >
		</node>