<?xml version="1.0" ?>
<!DOCTYPE plans SYSTEM "http://www.matsim.org/files/dtd/plans_v4.dtd">
<plans xml:lang="de-CH"><person id="1"><plan selected="yes"><act type="h" x="-14442731.092095293" y="4017438.656940623" end_time="08:00:00" /><leg mode="car" /><act type="h" x="-14402993.447252896" y="3956057.5119974846" /></plan></person><person id="2"><plan selected="yes"><act type="h" x="-14408531.79067369" y="3990670.7522222935" end_time="08:00:00" /><leg mode="car" /><act type="h" x="-14440993.85386454" y="3998428.6257339595" /></plan></person><person id="3"><plan selected="yes"><act type="h" x="-14423073.488061449" y="3989056.885178745" end_time="08:00:00" /><leg mode="car" /><act type="h" x="-14418368.753680572" y="3947644.2405729517" /></plan></person><person id="4"><plan selected="yes"><act type="h" x="-14393827.422748018" y="3961131.7184363655" end_time="08:00:00" /><leg mode="car" /><act type="h" x="-14440124.253450932" y="3986728.6102454145" /></plan></person><person id="5"><plan selected="yes"><act type="h" x="-14420466.544859342" y="3990080.7765386743" end_time="08:00:00" /><leg mode="car" /><act type="h" x="-14459751.506693471" y="4052813.3196068043" /></plan></person><person id="6"><plan selected="yes"><act type="h" x="-14453067.746826548" y="3985882.881455715" end_time="08:00:00" /><leg mode="car" /><act type="h" x="-14440053.70825653" y="3985885.3094434827" /></plan></person><person id="7"><plan selected="yes"><act type="h" x="-14443177.816455007" y="4022999.581892916" end_time="08:00:00" /><leg mode="car" /><act type="h" x="-14437856.880883424" y="3968723.6859811223" /></plan></person><person id="8"><plan selected="yes"><act type="h" x="-14450823.445950719" y="4017910.1514623314" end_time="08:00:00" /><leg mode="car" /><act type="h" x="-14428051.657463528" y="3955816.116312034" /></plan></person><person id="9"><plan selected="yes"><act type="h" x="-14440184.476756375" y="4008398.2460670415" end_time="08:00:00" /><leg mode="car" /><act type="h" x="-14475174.261007834" y="4070956.295707342" /></plan></person><person id="10"><plan selected="yes"><act type="h" x="-14453678.64645439" y="4025742.832192237" end_time="08:00:00" /><leg mode="car" /><act type="h" x="-14444382.192514831" y="4001066.4515645313" /></plan></person><person id="11"><plan selected="yes"><act type="h" x="-14444521.379261578" y="3986278.6724801622" end_time="08:00:00" /><leg mode="car" /><act type="h" x="-14428818.08609645" y="3983888.94420247" /></plan></person><person id="12"><plan selected="yes"><act type="h" x="-14448092.745820535" y="3981160.9362411383" end_time="08:00:00" /><leg mode="car" /><act type="h" x="-14442714.252252921" y="4022094.493057088" /></plan></person><person id="13"><plan selected="yes"><act type="h" x="-14439313.257956788" y="3966627.5546503835" end_time="08:00:00" /><leg mode="car" /><act type="h" x="-14403510.336385135" y="4018345.700734213" /></plan></person><person id="14"><plan selected="yes"><act type="h" x="-14451539.543355184" y="3989985.226884652" end_time="08:00:00" /><leg mode="car" /><act type="h" x="-14474657.562559538" y="3984161.3216871438" /></plan></person><person id="15"><plan selected="yes"><act type="h" x="-14447535.24350364" y="3967071.8793348377" end_time="08:00:00" /><leg mode="car" /><act type="h" x="-14423670.730456304" y="3953871.770120119" /></plan></person><person id="16"><plan selected="yes"><act type="h" x="-14448939.06560645" y="4056877.7038587555" end_time="08:00:00" /><leg mode="car" /><act type="h" x="-14446234.411471337" y="3966240.7058004914" /></plan></person><person id="17"><plan selected="yes"><act type="h" x="-14410591.24182907" y="3990890.363378395" end_time="08:00:00" /><leg mode="car" /><act type="h" x="-14467921.5731133" y="3988069.5421066065" /></plan></person><person id="18"><plan selected="yes"><act type="h" x="-14443910.371339869" y="3986275.587240113" end_time="08:00:00" /><leg mode="car" /><act type="h" x="-14410054.417443668" y="3935268.295419343" /></plan></person><person id="19"><plan selected="yes"><act type="h" x="-14387389.50890763" y="3969614.2098675533" end_time="08:00:00" /><leg mode="car" /><act type="h" x="-14453132.235013954" y="4054395.7352145487" /></plan></person><person id="20"><plan selected="yes"><act type="h" x="-14447362.216784844" y="3977510.3312660553" end_time="08:00:00" /><leg mode="car" /><act type="h" x="-14445038.855382388" y="3987987.0665043863" /></plan></person><person id="21"><plan selected="yes"><act type="h" x="-14445240.974557472" y="3989519.6001747376" end_time="08:00:00" /><leg mode="car" /><act type="h" x="-14416444.649212342" y="3989521.344016113" /></plan></person><person id="22"><plan selected="yes"><act type="h" x="-14448256.556672106" y="3984858.7811511043" end_time="08:00:00" /><leg mode="car" /><act type="h" x="-14438841.806385232" y="3964815.424253807" /></plan></person><person id="23"><plan selected="yes"><act type="h" x="-14443159.466458015" y="4023007.642965415" end_time="08:00:00" /><leg mode="car" /><act type="h" x="-14384149.104990928" y="3924658.107721468" /></plan></person><person id="24"><plan selected="yes"><act type="h" x="-14368571.381670084" y="3921646.518372938" end_time="08:00:00" /><leg mode="car" /><act type="h" x="-14400988.808512842" y="3958945.9892830984" /></plan></person><person id="25"><plan selected="yes"><act type="h" x="-14441987.468956267" y="3995939.384309642" end_time="08:00:00" /><leg mode="car" /><act type="h" x="-14445053.913642159" y="3987973.3686722973" /></plan></person><person id="26"><plan selected="yes"><act type="h" x="-14438453.06188997" y="3965059.035697867" end_time="08:00:00" /><leg mode="car" /><act type="h" x="-14411882.438282857" y="3951444.989794186" /></plan></person><person id="27"><plan selected="yes"><act type="h" x="-14399012.06961475" y="3960514.1572954077" end_time="08:00:00" /><leg mode="car" /><act type="h" x="-14448112.502108572" y="3983774.418614279" /></plan></person><person id="28"><plan selected="yes"><act type="h" x="-14465577.179595042" y="4065462.4526198" end_time="08:00:00" /><leg mode="car" /><act type="h" x="-14446387.741758116" y="4013943.310437637" /></plan></person><person id="29"><plan selected="yes"><act type="h" x="-14412102.68953723" y="3948948.4681697953" end_time="08:00:00" /><leg mode="car" /><act type="h" x="-14444851.964742266" y="3989985.7618133756" /></plan></person><person id="30"><plan selected="yes"><act type="h" x="-14453366.937605022" y="3981579.181849128" end_time="08:00:00" /><leg mode="car" /><act type="h" x="-14457307.114318697" y="3989775.3624119954" /></plan></person><person id="31"><plan selected="yes"><act type="h" x="-14453557.931028936" y="4025699.9116377733" end_time="08:00:00" /><leg mode="car" /><act type="h" x="-14389082.12854379" y="3974801.4960125983" /></plan></person><person id="32"><plan selected="yes"><act type="h" x="-14387899.267112968" y="3997279.40547567" end_time="08:00:00" /><leg mode="car" /><act type="h" x="-14402157.528403997" y="3986051.5495242346" /></plan></person><person id="33"><plan selected="yes"><act type="h" x="-14393737.399464875" y="3926254.137605309" end_time="08:00:00" /><leg mode="car" /><act type="h" x="-14444458.438888378" y="4000617.423499184" /></plan></person><person id="34"><plan selected="yes"><act type="h" x="-14449017.7051476" y="3989749.0657535177" end_time="08:00:00" /><leg mode="car" /><act type="h" x="-14453220.078890227" y="3975460.8114037067" /></plan></person><person id="35"><plan selected="yes"><act type="h" x="-14440880.994545508" y="3988727.968276871" end_time="08:00:00" /><leg mode="car" /><act type="h" x="-14453678.64645439" y="4025742.832192237" /></plan></person><person id="36"><plan selected="yes"><act type="h" x="-14448961.548737861" y="4023740.4374287473" end_time="08:00:00" /><leg mode="car" /><act type="h" x="-14440806.56063662" y="4007562.580305939" /></plan></person><person id="37"><plan selected="yes"><act type="h" x="-14419916.779522361" y="3952106.902751645" end_time="08:00:00" /><leg mode="car" /><act type="h" x="-14394812.916832153" y="3992059.5003227424" /></plan></person><person id="38"><plan selected="yes"><act type="h" x="-14419392.972861618" y="3951527.05378242" end_time="08:00:00" /><leg mode="car" /><act type="h" x="-14400177.696726583" y="3988613.6452500797" /></plan></person><person id="39"><plan selected="yes"><act type="h" x="-14459896.22172575" y="4053201.795493691" end_time="08:00:00" /><leg mode="car" /><act type="h" x="-14449783.416575734" y="4023880.120801977" /></plan></person><person id="40"><plan selected="yes"><act type="h" x="-14410261.11896607" y="3937879.999274026" end_time="08:00:00" /><leg mode="car" /><act type="h" x="-14420748.347855212" y="3952471.959957361" /></plan></person><person id="41"><plan selected="yes"><act type="h" x="-14431286.272261608" y="3957413.5915534664" end_time="08:00:00" /><leg mode="car" /><act type="h" x="-14441222.667188723" y="4003574.6460897955" /></plan></person><person id="42"><plan selected="yes"><act type="h" x="-14414372.227133255" y="3951200.4618127486" end_time="08:00:00" /><leg mode="car" /><act type="h" x="-14459812.454591118" y="4047468.4376167436" /></plan></person><person id="43"><plan selected="yes"><act type="h" x="-14407092.639654359" y="3954081.465424515" end_time="08:00:00" /><leg mode="car" /><act type="h" x="-14416543.63930236" y="3951070.1463902337" /></plan></person><person id="44"><plan selected="yes"><act type="h" x="-14438140.617879353" y="3970150.2685196227" end_time="08:00:00" /><leg mode="car" /><act type="h" x="-14453686.270773968" y="4025813.667401952" /></plan></person><person id="45"><plan selected="yes"><act type="h" x="-14445135.344853973" y="3989720.400283246" end_time="08:00:00" /><leg mode="car" /><act type="h" x="-14447248.14352052" y="3975885.421616537" /></plan></person><person id="46"><plan selected="yes"><act type="h" x="-14415734.149851212" y="3989300.1830426333" end_time="08:00:00" /><leg mode="car" /><act type="h" x="-14419040.151315518" y="3950908.418899916" /></plan></person><person id="47"><plan selected="yes"><act type="h" x="-14464214.757077144" y="3984443.1736132163" end_time="08:00:00" /><leg mode="car" /><act type="h" x="-14422292.791862395" y="3989191.4815689186" /></plan></person><person id="48"><plan selected="yes"><act type="h" x="-14419378.169957675" y="3951581.4027467226" end_time="08:00:00" /><leg mode="car" /><act type="h" x="-14403003.203852214" y="3989296.0871799802" /></plan></person><person id="49"><plan selected="yes"><act type="h" x="-14401935.161949085" y="3929787.4990290464" end_time="08:00:00" /><leg mode="car" /><act type="h" x="-14401460.892008318" y="3929456.261629654" /></plan></person><person id="50"><plan selected="yes"><act type="h" x="-14453091.152446935" y="3975218.9182335897" end_time="08:00:00" /><leg mode="car" /><act type="h" x="-14419332.671928452" y="3949562.96711235" /></plan></person><person id="51"><plan selected="yes"><act type="h" x="-14459060.268798443" y="3984894.264182997" end_time="08:00:00" /><leg mode="car" /><act type="h" x="-14409189.678419713" y="4017647.376557002" /></plan></person><person id="52"><plan selected="yes"><act type="h" x="-14420748.347855212" y="3952471.959957361" end_time="08:00:00" /><leg mode="car" /><act type="h" x="-14454976.441429835" y="3985596.5469715055" /></plan></person><person id="53"><plan selected="yes"><act type="h" x="-14402270.57455834" y="3988934.1067186045" end_time="08:00:00" /><leg mode="car" /><act type="h" x="-14445489.828525703" y="3995001.8970218026" /></plan></person><person id="54"><plan selected="yes"><act type="h" x="-14353470.049816653" y="3920821.872070973" end_time="08:00:00" /><leg mode="car" /><act type="h" x="-14475920.0459039" y="4072836.16608723" /></plan></person><person id="55"><plan selected="yes"><act type="h" x="-14440520.44557792" y="3986499.712414391" end_time="08:00:00" /><leg mode="car" /><act type="h" x="-14392323.386767697" y="4011204.764169542" /></plan></person><person id="56"><plan selected="yes"><act type="h" x="-14437828.347184222" y="3965775.122179935" end_time="08:00:00" /><leg mode="car" /><act type="h" x="-14448956.047158929" y="4023756.6835316108" /></plan></person><person id="57"><plan selected="yes"><act type="h" x="-14375787.89844658" y="3961562.859519047" end_time="08:00:00" /><leg mode="car" /><act type="h" x="-14454233.312678378" y="3985794.8823216795" /></plan></person><person id="58"><plan selected="yes"><act type="h" x="-14356292.168689676" y="3920736.9335018485" end_time="08:00:00" /><leg mode="car" /><act type="h" x="-14411846.495424619" y="3944849.862099081" /></plan></person><person id="59"><plan selected="yes"><act type="h" x="-14408058.878480252" y="4018080.8669931907" end_time="08:00:00" /><leg mode="car" /><act type="h" x="-14412088.552079126" y="3948841.815130475" /></plan></person><person id="60"><plan selected="yes"><act type="h" x="-14411943.68622111" y="3951453.071640504" end_time="08:00:00" /><leg mode="car" /><act type="h" x="-14437727.75757854" y="3967490.355925874" /></plan></person><person id="61"><plan selected="yes"><act type="h" x="-14388282.725327244" y="4006111.2332139816" end_time="08:00:00" /><leg mode="car" /><act type="h" x="-14465176.679553855" y="3984593.4921128266" /></plan></person><person id="62"><plan selected="yes"><act type="h" x="-14413702.641811462" y="3943523.096538089" end_time="08:00:00" /><leg mode="car" /><act type="h" x="-14441967.733274626" y="3996735.5483396184" /></plan></person><person id="63"><plan selected="yes"><act type="h" x="-14439441.809631038" y="3975145.0969974855" end_time="08:00:00" /><leg mode="car" /><act type="h" x="-14395423.533570834" y="3963503.577563393" /></plan></person><person id="64"><plan selected="yes"><act type="h" x="-14410107.083051005" y="3937841.1916750576" end_time="08:00:00" /><leg mode="car" /><act type="h" x="-14452896.149837196" y="3973093.918014688" /></plan></person><person id="65"><plan selected="yes"><act type="h" x="-14439044.304006865" y="3974058.984316219" end_time="08:00:00" /><leg mode="car" /><act type="h" x="-14410067.048898261" y="3935870.1054821215" /></plan></person><person id="66"><plan selected="yes"><act type="h" x="-14448038.111991335" y="3979851.7365210103" end_time="08:00:00" /><leg mode="car" /><act type="h" x="-14410257.461202506" y="3937884.343209668" /></plan></person><person id="67"><plan selected="yes"><act type="h" x="-14456648.44686477" y="4077358.733048073" end_time="08:00:00" /><leg mode="car" /><act type="h" x="-14403217.803055542" y="3989485.0028937184" /></plan></person><person id="68"><plan selected="yes"><act type="h" x="-14389593.530574199" y="3924210.097092767" end_time="08:00:00" /><leg mode="car" /><act type="h" x="-14385664.770941073" y="3967740.138009829" /></plan></person><person id="69"><plan selected="yes"><act type="h" x="-14411300.057320092" y="3952093.5249949023" end_time="08:00:00" /><leg mode="car" /><act type="h" x="-14448085.816714471" y="3979843.1579814837" /></plan></person><person id="70"><plan selected="yes"><act type="h" x="-14459742.429930026" y="4052781.0205482347" end_time="08:00:00" /><leg mode="car" /><act type="h" x="-14453463.646542212" y="3985448.1778940293" /></plan></person><person id="71"><plan selected="yes"><act type="h" x="-14440209.310835222" y="4023155.741375332" end_time="08:00:00" /><leg mode="car" /><act type="h" x="-14403487.733376103" y="4018337.0044225557" /></plan></person><person id="72"><plan selected="yes"><act type="h" x="-14419513.695819948" y="4017062.7948861453" end_time="08:00:00" /><leg mode="car" /><act type="h" x="-14411963.724742431" y="3946883.1575458427" /></plan></person><person id="73"><plan selected="yes"><act type="h" x="-14452661.13621885" y="3974190.8289936176" end_time="08:00:00" /><leg mode="car" /><act type="h" x="-14402620.975313846" y="3989142.2936961115" /></plan></person><person id="74"><plan selected="yes"><act type="h" x="-14442311.758535314" y="4013612.2862056955" end_time="08:00:00" /><leg mode="car" /><act type="h" x="-14438833.62282119" y="3971809.91474311" /></plan></person><person id="75"><plan selected="yes"><act type="h" x="-14446565.143587189" y="3966301.8176829247" end_time="08:00:00" /><leg mode="car" /><act type="h" x="-14440280.692297956" y="4008220.701103057" /></plan></person><person id="76"><plan selected="yes"><act type="h" x="-14452787.177394208" y="3974408.6672572554" end_time="08:00:00" /><leg mode="car" /><act type="h" x="-14443060.129190713" y="4075745.6611187947" /></plan></person><person id="77"><plan selected="yes"><act type="h" x="-14441291.082273845" y="4009572.389969241" end_time="08:00:00" /><leg mode="car" /><act type="h" x="-14434398.662072172" y="3958897.3748361142" /></plan></person><person id="78"><plan selected="yes"><act type="h" x="-14416568.595067786" y="3951068.513657226" end_time="08:00:00" /><leg mode="car" /><act type="h" x="-14429861.112702116" y="3956320.87253265" /></plan></person><person id="79"><plan selected="yes"><act type="h" x="-14355368.649526535" y="3920905.4732811027" end_time="08:00:00" /><leg mode="car" /><act type="h" x="-14419396.968768787" y="3951630.1205110373" /></plan></person><person id="80"><plan selected="yes"><act type="h" x="-14441497.348578438" y="3989676.162018054" end_time="08:00:00" /><leg mode="car" /><act type="h" x="-14455920.522724409" y="4033840.0362890237" /></plan></person><person id="81"><plan selected="yes"><act type="h" x="-14419311.211387085" y="3951199.5082430406" end_time="08:00:00" /><leg mode="car" /><act type="h" x="-14447362.755171305" y="4014553.7258818005" /></plan></person><person id="82"><plan selected="yes"><act type="h" x="-14439467.28224578" y="3966517.157559202" end_time="08:00:00" /><leg mode="car" /><act type="h" x="-14411849.40961093" y="3944916.248520538" /></plan></person><person id="83"><plan selected="yes"><act type="h" x="-14462498.49238287" y="4061441.5025993246" end_time="08:00:00" /><leg mode="car" /><act type="h" x="-14402348.58210951" y="3988508.729216294" /></plan></person><person id="84"><plan selected="yes"><act type="h" x="-14370097.659115942" y="3953337.3866535416" end_time="08:00:00" /><leg mode="car" /><act type="h" x="-14454457.652754841" y="3985757.0282130647" /></plan></person><person id="85"><plan selected="yes"><act type="h" x="-14388576.239881208" y="4006328.234815258" end_time="08:00:00" /><leg mode="car" /><act type="h" x="-14441150.125323672" y="4009365.341552605" /></plan></person><person id="86"><plan selected="yes"><act type="h" x="-14378990.386746524" y="3923773.4368113475" end_time="08:00:00" /><leg mode="car" /><act type="h" x="-14415742.202171471" y="3945115.3341165218" /></plan></person><person id="87"><plan selected="yes"><act type="h" x="-14448684.755375491" y="3989527.3259145743" end_time="08:00:00" /><leg mode="car" /><act type="h" x="-14439685.905727962" y="3978075.6668006144" /></plan></person><person id="88"><plan selected="yes"><act type="h" x="-14411825.562257571" y="3944463.1213728213" end_time="08:00:00" /><leg mode="car" /><act type="h" x="-14459917.77942032" y="4052768.756684521" /></plan></person><person id="89"><plan selected="yes"><act type="h" x="-14432500.463041782" y="3986184.9794843337" end_time="08:00:00" /><leg mode="car" /><act type="h" x="-14440048.406907707" y="3986722.3490004134" /></plan></person><person id="90"><plan selected="yes"><act type="h" x="-14429728.906570446" y="3979396.476955092" end_time="08:00:00" /><leg mode="car" /><act type="h" x="-14445210.245086703" y="3986461.983928041" /></plan></person><person id="91"><plan selected="yes"><act type="h" x="-14413216.751102518" y="4017042.6976315975" end_time="08:00:00" /><leg mode="car" /><act type="h" x="-14445848.12749537" y="3986335.003649603" /></plan></person><person id="92"><plan selected="yes"><act type="h" x="-14416537.710312836" y="3951060.904301569" end_time="08:00:00" /><leg mode="car" /><act type="h" x="-14439656.785652392" y="3977638.0654115938" /></plan></person><person id="93"><plan selected="yes"><act type="h" x="-14368571.381670084" y="3921646.518372938" end_time="08:00:00" /><leg mode="car" /><act type="h" x="-14440833.172255356" y="3986523.589767071" /></plan></person><person id="94"><plan selected="yes"><act type="h" x="-14380632.26369881" y="3924172.424908643" end_time="08:00:00" /><leg mode="car" /><act type="h" x="-14480504.803898193" y="3975796.320487262" /></plan></person><person id="95"><plan selected="yes"><act type="h" x="-14453573.42454356" y="4054336.2815786703" end_time="08:00:00" /><leg mode="car" /><act type="h" x="-14464722.698651496" y="4064739.840107946" /></plan></person><person id="96"><plan selected="yes"><act type="h" x="-14466976.40799" y="3984801.7022455507" end_time="08:00:00" /><leg mode="car" /><act type="h" x="-14459506.617144495" y="4052833.5166387395" /></plan></person><person id="97"><plan selected="yes"><act type="h" x="-14434183.173710756" y="3978529.1908172914" end_time="08:00:00" /><leg mode="car" /><act type="h" x="-14382142.927770795" y="3924326.6433405946" /></plan></person><person id="98"><plan selected="yes"><act type="h" x="-14480436.04812878" y="3976014.2713725283" end_time="08:00:00" /><leg mode="car" /><act type="h" x="-14456277.981858745" y="3989727.0775847114" /></plan></person><person id="99"><plan selected="yes"><act type="h" x="-14414372.227133255" y="3951200.4618127486" end_time="08:00:00" /><leg mode="car" /><act type="h" x="-14443906.904973209" y="3966330.693040113" /></plan></person><person id="100"><plan selected="yes"><act type="h" x="-14453736.084690692" y="4025630.965133495" end_time="08:00:00" /><leg mode="car" /><act type="h" x="-14418952.544029932" y="3948207.0135961603" /></plan></person><person id="101"><plan selected="yes"><act type="h" x="-14445456.110254256" y="3994132.343321932" end_time="08:00:00" /><leg mode="car" /><act type="h" x="-14426148.846160036" y="3955011.5990095795" /></plan></person><person id="102"><plan selected="yes"><act type="h" x="-14429341.505822698" y="3982721.4350880706" end_time="08:00:00" /><leg mode="car" /><act type="h" x="-14395085.483503504" y="4013176.7453910015" /></plan></person><person id="103"><plan selected="yes"><act type="h" x="-14389248.979747858" y="4007132.774471501" end_time="08:00:00" /><leg mode="car" /><act type="h" x="-14394794.541448895" y="3992803.4339100616" /></plan></person><person id="104"><plan selected="yes"><act type="h" x="-14453917.816082085" y="4076504.8241154784" end_time="08:00:00" /><leg mode="car" /><act type="h" x="-14442732.161026666" y="4021149.040239856" /></plan></person><person id="105"><plan selected="yes"><act type="h" x="-14460444.806020297" y="4017443.5083105317" end_time="08:00:00" /><leg mode="car" /><act type="h" x="-14420637.789835032" y="3990113.170590173" /></plan></person><person id="106"><plan selected="yes"><act type="h" x="-14440934.90116292" y="4003752.491263871" end_time="08:00:00" /><leg mode="car" /><act type="h" x="-14410151.174477613" y="3938121.0532133956" /></plan></person><person id="107"><plan selected="yes"><act type="h" x="-14439313.257956788" y="3966627.5546503835" end_time="08:00:00" /><leg mode="car" /><act type="h" x="-14452364.442608597" y="4027930.253692588" /></plan></person><person id="108"><plan selected="yes"><act type="h" x="-14460491.230851606" y="4080023.8364391807" end_time="08:00:00" /><leg mode="car" /><act type="h" x="-14443247.174257454" y="4010642.61563179" /></plan></person><person id="109"><plan selected="yes"><act type="h" x="-14440335.545722177" y="3988308.376888684" end_time="08:00:00" /><leg mode="car" /><act type="h" x="-14422117.554722376" y="3989342.790789531" /></plan></person><person id="110"><plan selected="yes"><act type="h" x="-14439657.32363387" y="3977913.6928028213" end_time="08:00:00" /><leg mode="car" /><act type="h" x="-14392630.328711495" y="3995531.2644325704" /></plan></person><person id="111"><plan selected="yes"><act type="h" x="-14465060.599317802" y="3984575.3392461995" end_time="08:00:00" /><leg mode="car" /><act type="h" x="-14424148.3540761" y="4019689.9700173703" /></plan></person><person id="112"><plan selected="yes"><act type="h" x="-14410067.048898261" y="3935870.1054821215" end_time="08:00:00" /><leg mode="car" /><act type="h" x="-14419261.893120833" y="3949603.566462675" /></plan></person><person id="113"><plan selected="yes"><act type="h" x="-14438802.05386454" y="3972058.855311949" end_time="08:00:00" /><leg mode="car" /><act type="h" x="-14409934.040865658" y="3952965.8832049994" /></plan></person><person id="114"><plan selected="yes"><act type="h" x="-14410119.01004949" y="3937962.5403730962" end_time="08:00:00" /><leg mode="car" /><act type="h" x="-14441233.70138916" y="3986477.7849181853" /></plan></person><person id="115"><plan selected="yes"><act type="h" x="-14437776.598477086" y="3967309.1863686293" end_time="08:00:00" /><leg mode="car" /><act type="h" x="-14447878.611575965" y="4015564.844270196" /></plan></person><person id="116"><plan selected="yes"><act type="h" x="-14434440.389825627" y="3958880.6263414463" end_time="08:00:00" /><leg mode="car" /><act type="h" x="-14448890.77349229" y="3986043.809330005" /></plan></person><person id="117"><plan selected="yes"><act type="h" x="-14453784.200761987" y="4054186.3524482506" end_time="08:00:00" /><leg mode="car" /><act type="h" x="-14409957.266968323" y="3952967.2184262327" /></plan></person><person id="118"><plan selected="yes"><act type="h" x="-14480301.411300022" y="3977234.8587959874" end_time="08:00:00" /><leg mode="car" /><act type="h" x="-14414417.642293554" y="3944072.3944548815" /></plan></person><person id="119"><plan selected="yes"><act type="h" x="-14393516.814256081" y="4012154.266134564" end_time="08:00:00" /><leg mode="car" /><act type="h" x="-14440287.98252213" y="3987473.0466048582" /></plan></person><person id="120"><plan selected="yes"><act type="h" x="-14467253.469131306" y="3984976.7896655495" end_time="08:00:00" /><leg mode="car" /><act type="h" x="-14448904.67727334" y="3989728.8761565457" /></plan></person><person id="121"><plan selected="yes"><act type="h" x="-14449653.634699358" y="4054444.6677264203" end_time="08:00:00" /><leg mode="car" /><act type="h" x="-14414724.452546572" y="3951162.9252066077" /></plan></person><person id="122"><plan selected="yes"><act type="h" x="-14448019.72036474" y="3980860.658272678" end_time="08:00:00" /><leg mode="car" /><act type="h" x="-14410485.984448776" y="3940204.5867427797" /></plan></person><person id="123"><plan selected="yes"><act type="h" x="-14452015.215146722" y="4028314.501980744" end_time="08:00:00" /><leg mode="car" /><act type="h" x="-14445939.254810164" y="3989891.258511583" /></plan></person><person id="124"><plan selected="yes"><act type="h" x="-14452971.802739786" y="4054428.065770275" end_time="08:00:00" /><leg mode="car" /><act type="h" x="-14443898.075373486" y="3986282.270935963" /></plan></person><person id="125"><plan selected="yes"><act type="h" x="-14418244.56307113" y="4016652.9260795545" end_time="08:00:00" /><leg mode="car" /><act type="h" x="-14442467.365045922" y="4011917.237040145" /></plan></person><person id="126"><plan selected="yes"><act type="h" x="-14445118.954231484" y="3981169.0683866306" end_time="08:00:00" /><leg mode="car" /><act type="h" x="-14469936.796539456" y="4069249.1976938345" /></plan></person><person id="127"><plan selected="yes"><act type="h" x="-14445533.742824154" y="3986393.241727059" end_time="08:00:00" /><leg mode="car" /><act type="h" x="-14422095.747863162" y="3989374.9514686996" /></plan></person><person id="128"><plan selected="yes"><act type="h" x="-14437777.73619907" y="3969083.0670367694" end_time="08:00:00" /><leg mode="car" /><act type="h" x="-14445081.962459303" y="3987001.0434437506" /></plan></person><person id="129"><plan selected="yes"><act type="h" x="-14393751.644803975" y="3961384.579893639" end_time="08:00:00" /><leg mode="car" /><act type="h" x="-14408365.410494747" y="3953050.5703380285" /></plan></person><person id="130"><plan selected="yes"><act type="h" x="-14395204.342068776" y="3963082.555157304" end_time="08:00:00" /><leg mode="car" /><act type="h" x="-14442347.624587823" y="4023028.8074423145" /></plan></person><person id="131"><plan selected="yes"><act type="h" x="-14415825.742628489" y="3945651.373618747" end_time="08:00:00" /><leg mode="car" /><act type="h" x="-14438690.334105302" y="3971830.770674777" /></plan></person><person id="132"><plan selected="yes"><act type="h" x="-14441941.777419172" y="3997310.91925337" end_time="08:00:00" /><leg mode="car" /><act type="h" x="-14460283.141830966" y="3984804.668033615" /></plan></person><person id="133"><plan selected="yes"><act type="h" x="-14459312.36127721" y="4046824.9848246346" end_time="08:00:00" /><leg mode="car" /><act type="h" x="-14451155.804770764" y="3989945.693272423" /></plan></person><person id="134"><plan selected="yes"><act type="h" x="-14460384.743508076" y="4017378.2053674003" end_time="08:00:00" /><leg mode="car" /><act type="h" x="-14386784.781253293" y="3968576.002013484" /></plan></person><person id="135"><plan selected="yes"><act type="h" x="-14444409.842257401" y="4001003.9938055063" end_time="08:00:00" /><leg mode="car" /><act type="h" x="-14439646.602741873" y="3982086.688081637" /></plan></person><person id="136"><plan selected="yes"><act type="h" x="-14425412.906355616" y="4020998.851513812" end_time="08:00:00" /><leg mode="car" /><act type="h" x="-14405076.476353265" y="3955118.0325181987" /></plan></person><person id="137"><plan selected="yes"><act type="h" x="-14441642.212494753" y="4007627.850201311" end_time="08:00:00" /><leg mode="car" /><act type="h" x="-14398090.916518161" y="3983334.090281841" /></plan></person><person id="138"><plan selected="yes"><act type="h" x="-14441869.02049928" y="3996543.963895761" end_time="08:00:00" /><leg mode="car" /><act type="h" x="-14452374.16033607" y="4024955.764317644" /></plan></person><person id="139"><plan selected="yes"><act type="h" x="-14440177.945855921" y="4006426.5029283646" end_ti