<?xml version="1.0"?>
<!DOCTYPE plans SYSTEM "http://www.matsim.org/files/dtd/plans_v4.dtd">
<plans xml:lang="de-CH">
	<person id="1">
		<plan selected="yes">
			<act type="h" x="476765.45587030036" y="5712317.4844458895" end_time="08:00:00" />
			<leg mode="car" />
			<act type="w" x="402275.09778714145" y="5824574.970211394" start_time="08:30:00" end_time="17:00:00" />
			<leg mode="car" />
			<act type="h" x="476765.45587030036" y="5712317.4844458895" />
		</plan>
	</person>
	<person id="2">
		<plan selected="yes">
			<act type="h" x="410442.4110551637" y="5823200.575059639" end_time="08:00:00" />
			<leg mode="car" />
			<act type="w" x="472381.6796998633" y="5781082.668462424" start_time="08:30:00" end_time="17:00:00" />
			<leg mode="car" />
			<act type="h" x="410442.4110551637" y="5823200.575059639" />
		</plan>
	</person>
	<person id="3">
		<plan selected="yes">
			<act type="h" x="467511.3252332764" y="5801775.224608857" end_time="08:00:00" />
			<leg mode="car" />
			<act type="w" x="393694.30169532076" y="5820381.6438524425" start_time="08:30:00" end_time="17:00:00" />
			<leg mode="car" />
			<act type="h" x="467511.3252332764" y="5801775.224608857" />
		</plan>
	</person>
	<person id="4">
		<plan selected="yes">
			<act type="h" x="365093.3379687448" y="5796371.879277672" end_time="08:00:00" />
			<leg mode="car" />
			<act type="w" x="355066.1858334185" y="5785157.475381192" start_time="08:30:00" end_time="17:00:00" />
			<leg mode="car" />
			<act type="h" x="365093.3379687448" y="5796371.879277672" />
		</plan>
	</person>
	<person id="5">
		<plan selected="yes">
			<act type="h" x="445775.94611477945" y="5700383.5808037985" end_time="08:00:00" />
			<leg mode="car" />
			<act type="w" x="305182.0317624374" y="5716738.127715142" start_time="08:30:00" end_time="17:00:00" />
			<leg mode="car" />
			<act type="h" x="445775.94611477945" y="5700383.5808037985" />
		</plan>
	</person>
	<person id="6">
		<plan selected="yes">
			<act type="h" x="415554.1905073646" y="5748472.556435983" end_time="08:00:00" />
			<leg mode="car" />
			<act type="w" x="329452.68571063527" y="5892169.213023112" start_time="08:30:00" end_time="17:00:00" />
			<leg mode="car" />
			<act type="h" x="415554.1905073646" y="5748472.556435983" />
		</plan>
	</person>
	<person id="7">
		<plan selected="yes">
			<act type="h" x="444803.60865073046" y="5700918.404420215" end_time="08:00:00" />
			<leg mode="car" />
			<act type="w" x="282583.02499096945" y="5826435.633890714" start_time="08:30:00" end_time="17:00:00" />
			<leg mode="car" />
			<act type="h" x="444803.60865073046" y="5700918.404420215" />
		</plan>
	</person>
	<person id="8">
		<plan selected="yes">
			<act type="h" x="388026.43929871527" y="5818331.441597127" end_time="08:00:00" />
			<leg mode="car" />
			<act type="w" x="387813.4603616464" y="5827117.227201115" start_time="08:30:00" end_time="17:00:00" />
			<leg mode="car" />
			<act type="h" x="388026.43929871527" y="5818331.441597127" />
		</plan>
	</person>
	<person id="9">
		<plan selected="yes">
			<act type="h" x="388029.424497857" y="5826622.440617489" end_time="08:00:00" />
			<leg mode="car" />
			<act type="w" x="397221.29784961796" y="5826215.795714823" start_time="08:30:00" end_time="17:00:00" />
			<leg mode="car" />
			<act type="h" x="388029.424497857" y="5826622.440617489" />
		</plan>
	</person>
	<person id="10">
		<plan selected="yes">
			<act type="h" x="291699.64721067133" y="5705833.7548036305" end_time="08:00:00" />
			<leg mode="car" />
			<act type="w" x="383070.68761784595" y="5799339.599547092" start_time="08:30:00" end_time="17:00:00" />
			<leg mode="car" />
			<act type="h" x="291699.64721067133" y="5705833.7548036305" />
		</plan>
	</person>
	<person id="11">
		<plan selected="yes">
			<act type="h" x="394429.4081794082" y="5797359.007618518" end_time="08:00:00" />
			<leg mode="car" />
			<act type="w" x="425926.0572899598" y="5714178.3658688795" start_time="08:30:00" end_time="17:00:00" />
			<leg mode="car" />
			<act type="h" x="394429.4081794082" y="5797359.007618518" />
		</plan>
	</person>
	<person id="12">
		<plan selected="yes">
			<act type="h" x="357558.51483804954" y="5793926.235755574" end_time="08:00:00" />
			<leg mode="car" />
			<act type="w" x="447923.92604881036" y="5699280.253913253" start_time="08:30:00" end_time="17:00:00" />
			<leg mode="car" />
			<act type="h" x="357558.51483804954" y="5793926.235755574" />
		</plan>
	</person>
	<person id="13">
		<plan selected="yes">
			<act type="h" x="351850.0104531244" y="5807521.994917268" end_time="08:00:00" />
			<leg mode="car" />
			<act type="w" x="381166.84002266556" y="5724789.415969407" start_time="08:30:00" end_time="17:00:00" />
			<leg mode="car" />
			<act type="h" x="351850.0104531244" y="5807521.994917268" />
		</plan>
	</person>
	<person id="14">
		<plan selected="yes">
			<act type="h" x="296105.3666866876" y="5791302.621111798" end_time="08:00:00" />
			<leg mode="car" />
			<act type="w" x="424163.56134091504" y="5754890.754020752" start_time="08:30:00" end_time="17:00:00" />
			<leg mode="car" />
			<act type="h" x="296105.3666866876" y="5791302.621111798" />
		</plan>
	</person>
	<person id="15">
		<plan selected="yes">
			<act type="h" x="309684.1203817497" y="5750016.569985789" end_time="08:00:00" />
			<leg mode="car" />
			<act type="w" x="305726.9635466264" y="5744348.760484222" start_time="08:30:00" end_time="17:00:00" />
			<leg mode="car" />
			<act type="h" x="309684.1203817497" y="5750016.569985789" />
		</plan>
	</person>
	<person id="16">
		<plan selected="yes">
			<act type="h" x="476139.4440403543" y="5748424.7038168125" end_time="08:00:00" />
			<leg mode="car" />
			<act type="w" x="394066.31876635307" y="5800196.355082664" start_time="08:30:00" end_time="17:00:00" />
			<leg mode="car" />
			<act type="h" x="476139.4440403543" y="5748424.7038168125" />
		</plan>
	</person>
	<person id="17">
		<plan selected="yes">
			<act type="h" x="376801.36083514325" y="5874537.314208495" end_time="08:00:00" />
			<leg mode="car" />
			<act type="w" x="294228.32886901987" y="5779307.204585867" start_time="08:30:00" end_time="17:00:00" />
			<leg mode="car" />
			<act type="h" x="376801.36083514325" y="5874537.314208495" />
		</plan>
	</person>
	<person id="18">
		<plan selected="yes">
			<act type="h" x="304965.81828988227" y="5701112.731371512" end_time="08:00:00" />
			<leg mode="car" />
			<act type="w" x="411887.2946328762" y="5817523.093278235" start_time="08:30:00" end_time="17:00:00" />
			<leg mode="car" />
			<act type="h" x="304965.81828988227" y="5701112.731371512" />
		</plan>
	</person>
	<person id="19">
		<plan selected="yes">
			<act type="h" x="300408.4523764368" y="5712725.188630749" end_time="08:00:00" />
			<leg mode="car" />
			<act type="w" x="367288.0716033182" y="5807548.890934139" start_time="08:30:00" end_time="17:00:00" />
			<leg mode="car" />
			<act type="h" x="300408.4523764368" y="5712725.188630749" />
		</plan>
	</person>
	<person id="20">
		<plan selected="yes">
			<act type="h" x="375853.803665571" y="5809340.496087243" end_time="08:00:00" />
			<leg mode="car" />
			<act type="w" x="374294.27220778784" y="5760936.002232767" start_time="08:30:00" end_time="17:00:00" />
			<leg mode="car" />
			<act type="h" x="375853.803665571" y="5809340.496087243" />
		</plan>
	</person>
	<person id="21">
		<plan selected="yes">
			<act type="h" x="391004.2936035264" y="5823989.876457586" end_time="08:00:00" />
			<leg mode="car" />
			<act type="w" x="439443.20518583705" y="5798728.369943602" start_time="08:30:00" end_time="17:00:00" />
			<leg mode="car" />
			<act type="h" x="391004.2936035264" y="5823989.876457586" />
		</plan>
	</person>
	<person id="22">
		<plan selected="yes">
			<act type="h" x="379252.53890903323" y="5789337.174714452" end_time="08:00:00" />
			<leg mode="car" />
			<act type="w" x="394936.1980332063" y="5820047.67178404" start_time="08:30:00" end_time="17:00:00" />
			<leg mode="car" />
			<act type="h" x="379252.53890903323" y="5789337.174714452" />
		</plan>
	</person>
	<person id="23">
		<plan selected="yes">
			<act type="h" x="353502.9760437811" y="5831509.915181254" end_time="08:00:00" />
			<leg mode="car" />
			<act type="w" x="362585.46136310825" y="5791035.519229768" start_time="08:30:00" end_time="17:00:00" />
			<leg mode="car" />
			<act type="h" x="353502.9760437811" y="5831509.915181254" />
		</plan>
	</person>
	<person id="24">
		<plan selected="yes">
			<act type="h" x="399840.0541552029" y="5797464.424783538" end_time="08:00:00" />
			<leg mode="car" />
			<act type="w" x="380240.04613626807" y="5852950.874414229" start_time="08:30:00" end_time="17:00:00" />
			<leg mode="car" />
			<act type="h" x="399840.0541552029" y="5797464.424783538" />
		</plan>
	</person>
	<person id="25">
		<plan selected="yes">
			<act type="h" x="454308.78595434164" y="5806264.225927061" end_time="08:00:00" />
			<leg mode="car" />
			<act type="w" x="385084.3056273416" y="5796370.088020672" start_time="08:30:00" end_time="17:00:00" />
			<leg mode="car" />
			<act type="h" x="454308.78595434164" y="5806264.225927061" />
		</plan>
	</person>
	<person id="26">
		<plan selected="yes">
			<act type="h" x="276481.6208895196" y="5781426.710130459" end_time="08:00:00" />
			<leg mode="car" />
			<act type="w" x="389443.2261186936" y="5822563.037191769" start_time="08:30:00" end_time="17:00:00" />
			<leg mode="car" />
			<act type="h" x="276481.6208895196" y="5781426.710130459" />
		</plan>
	</person>
	<person id="27">
		<plan selected="yes">
			<act type="h" x="481031.9505370858" y="5709575.627115535" end_time="08:00:00" />
			<leg mode="car" />
			<act type="w" x="391877.4925764475" y="5826911.57525265" start_time="08:30:00" end_time="17:00:00" />
			<leg mode="car" />
			<act type="h" x="481031.9505370858" y="5709575.627115535" />
		</plan>
	</person>
	<person id="28">
		<plan selected="yes">
			<act type="h" x="401867.7091801672" y="5806479.791519786" end_time="08:00:00" />
			<leg mode="car" />
			<act type="w" x="285091.5964105342" y="5695543.626075151" start_time="08:30:00" end_time="17:00:00" />
			<leg mode="car" />
			<act type="h" x="401867.7091801672" y="5806479.791519786" />
		</plan>
	</person>
	<person id="29">
		<plan selected="yes">
			<act type="h" x="397646.88906703703" y="5814147.955563338" end_time="08:00:00" />
			<leg mode="car" />
			<act type="w" x="380228.4152686236" y="5852980.38711764" start_time="08:30:00" end_time="17:00:00" />
			<leg mode="car" />
			<act type="h" x="397646.88906703703" y="5814147.955563338" />
		</plan>
	</person>
	<person id="30">
		<plan selected="yes">
			<act type="h" x="435548.3771565674" y="5701805.011332311" end_time="08:00:00" />
			<leg mode="car" />
			<act type="w" x="386366.30979329714" y="5847603.033661865" start_time="08:30:00" end_time="17:00:00" />
			<leg mode="car" />
			<act type="h" x="435548.3771565674" y="5701805.011332311" />
		</plan>
	</person>
	<person id="31">
		<plan selected="yes">
			<act type="h" x="386627.6564063797" y="5796424.571592047" end_time="08:00:00" />
			<leg mode="car" />
			<act type="w" x="480399.0687060699" y="5706476.56473014" start_time="08:30:00" end_time="17:00:00" />
			<leg mode="car" />
			<act type="h" x="386627.6564063797" y="5796424.571592047" />
		</plan>
	</person>
	<person id="32">
		<plan selected="yes">
			<act type="h" x="280428.4531948898" y="5867205.258254033" end_time="08:00:00" />
			<leg mode="car" />
			<act type="w" x="349639.17646109866" y="5767576.188747745" start_time="08:30:00" end_time="17:00:00" />
			<leg mode="car" />
			<act type="h" x="280428.4531948898" y="5867205.258254033" />
		</plan>
	</person>
	<person id="33">
		<plan selected="yes">
			<act type="h" x="392326.41509502754" y="5820009.569121367" end_time="08:00:00" />
			<leg mode="car" />
			<act type="w" x="368866.8683051634" y="5796098.768037088" start_time="08:30:00" end_time="17:00:00" />
			<leg mode="car" />
			<act type="h" x="392326.41509502754" y="5820009.569121367" />
		</plan>
	</person>
	<person id="34">
		<plan selected="yes">
			<act type="h" x="298867.1565596231" y="5704728.937744921" end_time="08:00:00" />
			<leg mode="car" />
			<act type="w" x="377265.87674907263" y="5776297.35541178" start_time="08:30:00" end_time="17:00:00" />
			<leg mode="car" />
			<act type="h" x="298867.1565596231" y="5704728.937744921" />
		</plan>
	</person>
	<person id="35">
		<plan selected="yes">
			<act type="h" x="279989.7297113483" y="5861863.534960521" end_time="08:00:00" />
			<leg mode="car" />
			<act type="w" x="393402.54639127676" y="5802953.687247493" start_time="08:30:00" end_time="17:00:00" />
			<leg mode="car" />
			<act type="h" x="279989.7297113483" y="5861863.534960521" />
		</plan>
	</person>
	<person id="36">
		<plan selected="yes">
			<act type="h" x="437079.4302997253" y="5693648.287064655" end_time="08:00:00" />
			<leg mode="car" />
			<act type="w" x="328664.06333678425" y="5834773.910050465" start_time="08:30:00" end_time="17:00:00" />
			<leg mode="car" />
			<act type="h" x="437079.4302997253" y="5693648.287064655" />
		</plan>
	</person>
	<person id="37">
		<plan selected="yes">
			<act type="h" x="463399.06420827575" y="5736056.697658514" end_time="08:00:00" />
			<leg mode="car" />
			<act type="w" x="330029.32511892647" y="5778605.022982656" start_time="08:30:00" end_time="17:00:00" />
			<leg mode="car" />
			<act type="h" x="463399.06420827575" y="5736056.697658514" />
		</plan>
	</person>
	<person id="38">
		<plan selected="yes">
			<act type="h" x="329732.34194554377" y="5778641.028503688" end_time="08:00:00" />
			<leg mode="car" />
			<act type="w" x="277726.90493688616" y="5785548.316125315" start_time="08:30:00" end_time="17:00:00" />
			<leg mode="car" />
			<act type="h" x="329732.34194554377" y="5778641.028503688" />
		</plan>
	</person>
	<person id="39">
		<plan selected="yes">
			<act type="h" x="291411.6884428556" y="5705646.174413709" end_time="08:00:00" />
			<leg mode="car" />
			<act type="w" x="395371.0745246219" y="5820998.3598116" start_time="08:30:00" end_time="17:00:00" />
			<leg mode="car" />
			<act type="h" x="291411.6884428556" y="5705646.174413709" />
		</plan>
	</person>
	<person id="40">
		<plan selected="yes">
			<act type="h" x="468687.79287243186" y="5799239.655129567" end_time="08:00:00" />
			<leg mode="car" />
			<act type="w" x="297990.1824869419" y="5820700.188821378" start_time="08:30:00" end_time="17:00:00" />
			<leg mode="car" />
			<act type="h" x="468687.79287243186" y="5799239.655129567" />
		</plan>
	</person>
	<person id="41">
		<plan selected="yes">
			<act type="h" x="401419.3693253897" y="5843299.789039152" end_time="08:00:00" />
			<leg mode="car" />
			<act type="w" x="399582.31228269765" y="5807949.337759333" start_time="08:30:00" end_time="17:00:00" />
			<leg mode="car" />
			<act type="h" x="401419.3693253897" y="5843299.789039152" />
		</plan>
	</person>
	<person id="42">
		<plan selected="yes">
			<act type="h" x="365734.35685961234" y="5841504.143798812" end_time="08:00:00" />
			<leg mode="car" />
			<act type="w" x="469707.55605925294" y="5796138.875739312" start_time="08:30:00" end_time="17:00:00" />
			<leg mode="car" />
			<act type="h" x="365734.35685961234" y="5841504.143798812" />
		</plan>
	</person>
	<person id="43">
		<plan selected="yes">
			<act type="h" x="376999.4766422559" y="5803810.377648152" end_time="08:00:00" />
			<leg mode="car" />
			<act type="w" x="301441.8580893591" y="5804397.877836107" start_time="08:30:00" end_time="17:00:00" />
			<leg mode="car" />
			<act type="h" x="376999.4766422559" y="5803810.377648152" />
		</plan>
	</person>
	<person id="44">
		<plan selected="yes">
			<act type="h" x="394296.9492373564" y="5822624.793107752" end_time="08:00:00" />
			<leg mode="car" />
			<act type="w" x="325638.5676982609" y="5692360.572349396" start_time="08:30:00" end_time="17:00:00" />
			<leg mode="car" />
			<act type="h" x="394296.9492373564" y="5822624.793107752" />
		</plan>
	</person>
	<person id="45">
		<plan selected="yes">
			<act type="h" x="420528.5638342894" y="5702546.340486468" end_time="08:00:00" />
			<leg mode="car" />
			<act type="w" x="456820.2911541104" y="5737485.775122713" start_time="08:30:00" end_time="17:00:00" />
			<leg mode="car" />
			<act type="h" x="420528.5638342894" y="5702546.340486468" />
		</plan>
	</person>
	<person id="46">
		<plan selected="yes">
			<act type="h" x="422298.1494865535" y="5771426.330011504" end_time="08:00:00" />
			<leg mode="car" />
			<act type="w" x="290852.9648184366" y="5886586.008686254" start_time="08:30:00" end_time="17:00:00" />
			<leg mode="car" />
			<act type="h" x="422298.1494865535" y="5771426.330011504" />
		</plan>
	</person>
	<person id="47">
		<plan selected="yes">
			<act type="h" x="371636.34558750817" y="5804316.19882398" end_time="08:00:00" />
			<leg mode="car" />
			<act type="w" x="409835.7271445404" y="5788836.101094115" start_time="08:30:00" end_time="17:00:00" />
			<leg mode="car" />
			<act type="h" x="371636.34558750817" y="5804316.19882398" />
		</plan>
	</person>
	<person id="48">
		<plan selected="yes">
			<act type="h" x="389224.35492128995" y="5824029.285176714" end_time="08:00:00" />
			<leg mode="car" />
			<act type="w" x="400551.2193428616" y="5703084.310636491" start_time="08:30:00" end_time="17:00:00" />
			<leg mode="car" />
			<act type="h" x="389224.35492128995" y="5824029.285176714" />
		</plan>
	</person>
	<person id="49">
		<plan selected="yes">
			<act type="h" x="397341.23345807893" y="5831736.955091625" end_time="08:00:00" />
			<leg mode="car" />
			<act type="w" x="338352.6782107991" y="5748239.248635117" start_time="08:30:00" end_time="17:00:00" />
			<leg mode="car" />
			<act type="h" x="397341.23345807893" y="5831736.955091625" />
		</plan>
	</person>
	<person id="50">
		<plan selected="yes">
			<act type="h" x="453610.4389157252" y="5688524.751607984" end_time="08:00:00" />
			<leg mode="car" />
			<act type="w" x="439060.60701583215" y="5716578.792078272" start_time="08:30:00" end_time="17:00:00" />
			<leg mode="car" />
			<act type="h" x="453610.4389157252" y="5688524.751607984" />
		</plan>
	</person>
	<person id="51">
		<plan selected="yes">
			<act type="h" x="280666.98005075904" y="5771326.094361784" end_time="08:00:00" />
			<leg mode="car" />
			<act type="w" x="311793.01204992086" y="5894432.389907021" start_time="08:30:00" end_time="17:00:00" />
			<leg mode="car" />
			<act type="h" x="280666.98005075904" y="5771326.094361784" />
		</plan>
	</person>
	<person id="52">
		<plan selected="yes">
			<act type="h" x="392490.6840852133" y="5820327.512707421" end_time="08:00:00" />
			<leg mode="car" />
			<act type="w" x="418160.3691865632" y="5812904.463589781" start_time="08:30:00" end_time="17:00:00" />
			<leg mode="car" />
			<act type="h" x="392490.6840852133" y="5820327.512707421" />
		</plan>
	</person>
	<person id="53">
		<plan selected="yes">
			<act type="h" x="422136.94964316324" y="5796376.3726290045" end_time="08:00:00" />
			<leg mode="car" />
			<act type="w" x="280857.7040933238" y="5708084.868904949" start_time="08:30:00" end_time="17:00:00" />
			<leg mode="car" />
			<act type="h" x="422136.94964316324" y="5796376.3726290045" />
		</plan>
	</person>
	<person id="54">
		<plan selected="yes">
			<act type="h" x="420895.5754933083" y="5815603.623432639" end_time="08:00:00" />
			<leg mode="car" />
			<act type="w" x="285357.2046194854" y="5706580.478995677" start_time="08:30:00" end_time="17:00:00" />
			<leg mode="car" />
			<act type="h" x="420895.5754933083" y="5815603.623432639" />
		</plan>
	</person>
	<person id="55">
		<plan selected="yes">
			<act type="h" x="359238.11512873205" y="5886726.495219614" end_time="08:00:00" />
			<leg mode="car" />
			<act type="w" x="367434.6892462643" y="5807588.341417236" start_time="08:30:00" end_time="17:00:00" />
			<leg mode="car" />
			<act type="h" x="359238.11512873205" y="5886726.495219614" />
		</plan>
	</person>
	<person id="56">
		<plan selected="yes">
			<act type="h" x="478189.2035156434" y="5708328.7770192195" end_time="08:00:00" />
			<leg mode="car" />
			<act type="w" x="293568.59276426595" y="5709813.274192455" start_time="08:30:00" end_time="17:00:00" />
			<leg mode="car" />
			<act type="h" x="478189.2035156434" y="5708328.7770192195" />
		</plan>
	</person>
	<person id="57">
		<plan selected="yes">
			<act type="h" x="444373.41669117665" y="5817413.925391846" end_time="08:00:00" />
			<leg mode="car" />
			<act type="w" x="339421.7835425831" y="5809368.633923671" start_time="08:30:00" end_time="17:00:00" />
			<leg mode="car" />
			<act type="h" x="444373.41669117665" y="5817413.925391846" />
		</plan>
	</person>
	<person id="58">
		<plan selected="yes">
			<act type="h" x="359226.5463132315" y="5811408.44104914" end_time="08:00:00" />
			<leg mode="car" />
			<act type="w" x="435367.76005575096" y="5705061.577604291" start_time="08:30:00" end_time="17:00:00" />
			<leg mode="car" />
			<act type="h" x="359226.5463132315" y="5811408.44104914" />
		</plan>
	</person>
	<person id="59">
		<plan selected="yes">
			<act type="h" x="304766.5049366782" y="5698145.765913354" end_time="08:00:00" />
			<leg mode="car" />
			<act type="w" x="394296.95892164" y="5813680.248970895" start_time="08:30:00" end_time="17:00:00" />
			<leg mode="car" />
			<act type="h" x="304766.5049366782" y="5698145.765913354" />
		</plan>
	</person>
	<person id="60">
		<plan selected="yes">
			<act type="h" x="391114.7476142127" y="5823971.036408742" end_time="08:00:00" />
			<leg mode="car" />
			<act type="w" x="434361.2579058624" y="5825889.856097721" start_time="08:30:00" end_time="17:00:00" />
			<leg mode="car" />
			<act type="h" x="391114.7476142127" y="5823971.036408742" />
		</plan>
	</person>
	<person id="61">
		<plan selected="yes">
			<act type="h" x="356964.0035151206" y="5829330.2726234505" end_time="08:00:00" />
			<leg mode="car" />
			<act type="w" x="296947.52458946116" y="5707069.618883581" start_time="08:30:00" end_time="17:00:00" />
			<leg mode="car" />
			<act type="h" x="356964.0035151206" y="5829330.2726234505" />
		</plan>
	</person>
	<person id="62">
		<plan selected="yes">
			<act type="h" x="472018.70206636685" y="5724723.4385070745" end_time="08:00:00" />
			<leg mode="car" />
			<act type="w" x="401017.71878325765" y="5803698.914025022" start_time="08:30:00" end_time="17:00:00" />
			<leg mode="car" />
			<act type="h" x="472018.70206636685" y="5724723.4385070745" />
		</plan>
	</person>
	<person id="63">
		<plan selected="yes">
			<act type="h" x="312064.53666149965" y="5722641.636287739" end_time="08:00:00" />
			<leg mode="car" />
			<act type="w" x="366844.41838954145" y="5787064.169248132" start_time="08:30:00" end_time="17:00:00" />
			<leg mode="car" />
			<act type="h" x="312064.53666149965" y="5722641.636287739" />
		</plan>
	</person>
	<person id="64">
		<plan selected="yes">
			<act type="h" x="370694.6727562552" y="5798788.2433071155" end_time="08:00:00" />
			<leg mode="car" />
			<act type="w" x="418583.8623871736" y="5750271.288375853" start_time="08:30:00" end_time="17:00:00" />
			<leg mode="car" />
			<act type="h" x="370694.6727562552" y="5798788.2433071155" />
		</plan>
	</person>
	<person id="65">
		<plan selected="yes">
			<act type="h" x="362609.2772663556" y="5823006.962697982" end_time="08:00:00" />
			<leg mode="car" />
			<act type="w" x="469863.45870903315" y="5799910.314338209" start_time="08:30:00" end_time="17:00:00" />
			<leg mode="car" />
			<act type="h" x="362609.2772663556" y="5823006.962697982" />
		</plan>
	</person>
	<person id="66">
		<plan selected="yes">
			<act type="h" x="453816.1726854508" y="5711277.3318831185" end_time="08:00:00" />
			<leg mode="car" />
			<act type="w" x="314777.22199948935" y="5722385.132152014" start_time="08:30:00" end_time="17:00:00" />
			<leg mode="car" />
			<act type="h" x="453816.1726854508" y="5711277.3318831185" />
		</plan>
	</person>
	<person id="67">
		<plan selected="yes">
			<act type="h" x="472975.85553110985" y="5728961.264198207" end_time="08:00:00" />
			<leg mode="car" />
			<act type="w" x="404727.15166817495" y="5796491.4850350395" start_time="08:30:00" end_time="17:00:00" />
			<leg mode="car" />
			<act type="h" x="472975.85553110985" y="5728961.264198207" />
		</plan>
	</person>
	<person id="68">
		<plan selected="yes">
			<act type="h" x="332151.40186906455" y="5719426.60676587" end_time="08:00:00" />
			<leg mode="car" />
			<act type="w" x="309888.2585105015" y="5750994.601273206" start_time="08:30:00" end_time="17:00:00" />
			<leg mode="car" />
			<act type="h" x="332151.40186906455" y="5719426.60676587" />
		</plan>
	</person>
	<person id="69">
		<plan selected="yes">
			<act type="h" x="315083.348172345" y="5891439.54504038" end_time="08:00:00" />
			<leg mode="car" />
			<act type="w" x="443479.29958062444" y="5762481.815621618" start_time="08:30:00" end_time="17:00:00" />
			<leg mode="car" />
			<act type="h" x="315083.348172345" y="5891439.54504038" />
		</plan>
	</person>
	<person id="70">
		<plan selected="yes">
			<act type="h" x="388874.28848014085" y="5731429.423708032" end_time="08:00:00" />
			<leg mode="car" />
			<act type="w" x="285159.82783166465" y="5829864.155691257" start_time="08:30:00" end_time="17:00:00" />
			<leg mode="car" />
			<act type="h" x="388874.28848014085" y="5731429.423708032" />
		</plan>
	</person>
	<person id="71">
		<plan selected="yes">
			<act type="h" x="331574.7333203986" y="5720742.81938782" end_time="08:00:00" />
			<leg mode="car" />
			<act type="w" x="333661.2580103202" y="5779165.666781397" start_time="08:30:00" end_time="17:00:00" />
			<leg mode="car" />
			<act type="h" x="331574.7333203986" y="5720742.81938782" />
		</plan>
	</person>
	<person id="72">
		<plan selected="yes">
			<act type="h" x="318066.9087454529" y="5724415.019965706" end_time="08:00:00" />
			<leg mode="car" />
			<act type="w" x="376098.8901851077" y="5894511.258797367" start_time="08:30:00" end_time="17:00:00" />
			<leg mode="car" />
			<act type="h" x="318066.9087454529" y="5724415.019965706" />
		</plan>
	</person>
	<person id="73">
		<plan selected="yes">
			<act type="h" x="400956.69035814767" y="5822078.93728964" end_time="08:00:00" />
			<leg mode="car" />
			<act type="w" x="280818.3955432377" y="5789559.983415537" start_time="08:30:00" end_time="17:00:00" />
			<leg mode="car" />
			<act type="h" x="400956.69035814767" y="5822078.93728964" />
		</plan>
	</person>
	<person id="74">
		<plan selected="yes">
			<act type="h" x="358825.5605557408" y="5739828.249339532" end_time="08:00:00" />
			<leg mode="car" />
			<act type="w" x="334489.08236748073" y="5692403.849130423" start_time="08:30:00" end_time="17:00:00" />
			<leg mode="car" />
			<act type="h" x="358825.5605557408" y="5739828.249339532" />
		</plan>
	</person>
	<person id="75">
		<plan selected="yes">
			<act type="h" x="350209.46698062576" y="5744106.239412553" end_time="08:00:00" />
			<leg mode="car" />
			<act type="w" x="359326.7014702016" y="5713162.398227725" start_time="08:30:00" end_time="17:00:00" />
			<leg mode="car" />
			<act type="h" x="350209.46698062576" y="5744106.239412553" />
		</plan>
	</person>
	<person id="76">
		<plan selected="yes">
			<act type="h" x="477592.3368964222" y="5834266.360052006" end_time="08:00:00" />
			<leg mode="car" />
			<act type="w" x="387086.8127737695" y="5828630.684551462" start_time="08:30:00" end_time="17:00:00" />
			<leg mode="car" />
			<act type="h" x="477592.3368964222" y="5834266.360052006" />
		</plan>
	</person>
	<person id="77">
		<plan selected="yes">
			<act type="h" x="290800.4920798184" y="5886544.492170896" end_time="08:00:00" />
			<leg mode="car" />
			<act type="w" x="395455.93568222167" y="5812693.668793342" start_time="08:30:00" end_time="17:00:00" />
			<leg mode="car" />
			<act type="h" x="290800.4920798184" y="5886544.492170896" />
		</plan>
	</person>
	<person id="78">
		<plan selected="yes">
			<act type="h" x="415203.7136624409" y="5817350.311504208" end_time="08:00:00" />
			<leg mode="car" />
			<act type="w" x="304181.98920671927" y="5692873.3565830495" start_time="08:30:00" end_time="17:00:00" />
			<leg mode="car" />
			<act type="h" x="415203.7136624409" y="5817350.311504208" />
		</plan>
	</person>
	<person id="79">
		<plan selected="yes">
			<act type="h" x="310458.3498767064" y="5744147.292480229" end_time="08:00:00" />
			<leg mode="car" />
			<act type="w" x="313723.700832138" y="5830023.038144149" start_time="08:30:00" end_time="17:00:00" />
			<leg mode="car" />
			<act type="h" x="310458.3498767064" y="5744147.292480229" />
		</plan>
	</person>
	<person id="80">
		<plan selected="yes">
			<act type="h" x="444951.48138334876" y="5700827.3237857735" end_time="08:00:00" />
			<leg mode="car" />
			<act type="w" x="389131.7947006858" y="5819640.807438656" start_time="08:30:00" end_time="17:00:00" />
			<leg mode="car" />
			<act type="h" x="444951.48138334876" y="5700827.3237857735" />
		</plan>
	</person>
	<person id="81">
		<plan selected="yes">
			<act type="h" x="419412.0042893912" y="5749644.430035008" end_time="08:00:00" />
			<leg mode="car" />
			<act type="w" x="400123.37423085916" y="5797473.779642094" start_time="08:30:00" end_time="17:00:00" />
			<leg mode="car" />
			<act type="h" x="419412.0042893912" y="5749644.430035008" />
		</plan>
	</person>
	<person id="82">
		<plan selected="yes">
			<act type="h" x="424240.6650483263" y="5769958.071291038" end_time="08:00:00" />
			<leg mode="car" />
			<act type="w" x="314777.22199948935" y="5722385.132152014" start_time="08:30:00" end_time="17:00:00" />
			<leg mode="car" />
			<act type="h" x="424240.6650483263" y="5769958.071291038" />
		</plan>
	</person>
	<person id="83">
		<plan selected="yes">
			<act type="h" x="315221.3483675673" y="5694899.345210602" end_time="08:00:00" />
			<leg mode="car" />