<?xml version="1.0" ?>
<!DOCTYPE plans SYSTEM "http://www.matsim.org/files/dtd/plans_v4.dtd">
<plans xml:lang="de-CH"><person id="1"><plan selected="yes"><act type="h" x="-14448821.055489454" y="3986253.0416896804" end_time="09:00:00" /><leg mode="car" /><act type="h" x="-14445061.324265365" y="3987281.46062771" end_time="18:00:00" /><leg mode="car" /><act type="h" x="3987281.46062771" y="-14445061.324265365" /></plan></person><person id="2"><plan selected="yes"><act type="h" x="-14441494.545281835" y="3989677.0375458705" end_time="09:00:00" /><leg mode="car" /><act type="h" x="-14443972.744864281" y="3986311.841712334" end_time="18:00:00" /><leg mode="car" /><act type="h" x="3986311.841712334" y="-14443972.744864281" /></plan></person><person id="3"><plan selected="yes"><act type="h" x="-14445503.813351259" y="3986324.1964633577" end_time="09:00:00" /><leg mode="car" /><act type="h" x="-14445124.385678267" y="3989844.208323952" end_time="18:00:00" /><leg mode="car" /><act type="h" x="3989844.208323952" y="-14445124.385678267" /></plan></person><person id="4"><plan selected="yes"><act type="h" x="-14443983.907578979" y="3986311.1013565296" end_time="09:00:00" /><leg mode="car" /><act type="h" x="-14441034.758516882" y="3988821.2751574866" end_time="18:00:00" /><leg mode="car" /><act type="h" x="3988821.2751574866" y="-14441034.758516882" /></plan></person><person id="5"><plan selected="yes"><act type="h" x="-14447634.496565208" y="3989705.649773882" end_time="09:00:00" /><leg mode="car" /><act type="h" x="-14445044.265903719" y="3987065.2123929816" end_time="18:00:00" /><leg mode="car" /><act type="h" x="3987065.2123929816" y="-14445044.265903719" /></plan></person><person id="6"><plan selected="yes"><act type="h" x="-14443082.658908794" y="3989969.209226768" end_time="09:00:00" /><leg mode="car" /><act type="h" x="-14445043.40939975" y="3987659.279924863" end_time="18:00:00" /><leg mode="car" /><act type="h" x="3987659.279924863" y="-14445043.40939975" /></plan></person><person id="7"><plan selected="yes"><act type="h" x="-14449402.242069831" y="3989646.52832763" end_time="09:00:00" /><leg mode="car" /><act type="h" x="-14445117.4332905" y="3987820.9043784677" end_time="18:00:00" /><leg mode="car" /><act type="h" x="3987820.9043784677" y="-14445117.4332905" /></plan></person><person id="8"><plan selected="yes"><act type="h" x="-14445019.784693504" y="3987596.825803761" end_time="09:00:00" /><leg mode="car" /><act type="h" x="-14441451.769741397" y="3989443.9468344846" end_time="18:00:00" /><leg mode="car" /><act type="h" x="3989443.9468344846" y="-14441451.769741397" /></plan></person><person id="9"><plan selected="yes"><act type="h" x="-14441473.472435523" y="3989649.252982147" end_time="09:00:00" /><leg mode="car" /><act type="h" x="-14445061.320578119" y="3987170.881290723" end_time="18:00:00" /><leg mode="car" /><act type="h" x="3987170.881290723" y="-14445061.320578119" /></plan></person><person id="10"><plan selected="yes"><act type="h" x="-14449061.958276343" y="3989194.084910546" end_time="09:00:00" /><leg mode="car" /><act type="h" x="-14448784.591385651" y="3989477.268076136" end_time="18:00:00" /><leg mode="car" /><act type="h" x="3989477.268076136" y="-14448784.591385651" /></plan></person></plans>