<?xml version="1.0" ?>
<!DOCTYPE plans SYSTEM "http://www.matsim.org/files/dtd/plans_v4.dtd">
<plans xml:lang="de-CH"><person id="1"><plan selected="yes"><act type="h" x="381207.5998142893" y="5835452.495217152" end_time="08:00:00" /><leg mode="car" /><act type="w" x="389276.1719310647" y="5823747.233647647" start_time="08:30:00" end_time="17:00:00" /><leg mode="car" /><act type="car charging interaction" link="97866319_0" x="309372.5193165111" y="5892407.443415696" end_time="20:30:00" /><leg mode="car" /><act type="h" x="381207.5998142893" y="5835452.495217152" /></plan></person><person id="2"><plan selected="yes"><act type="h" x="357856.4057787529" y="5795251.652197854" end_time="08:00:00" /><leg mode="car" /><act type="w" x="455456.8155892442" y="5725103.287157478" start_time="08:30:00" end_time="17:00:00" /><leg mode="car" /><act type="car charging interaction" link="123695791_0" x="469510.4856769627" y="5822709.803690758" end_time="20:30:00" /><leg mode="car" /><act type="h" x="357856.4057787529" y="5795251.652197854" /></plan></person><person id="3"><plan selected="yes"><act type="h" x="353862.069365541" y="5831252.466098583" end_time="08:00:00" /><leg mode="car" /><act type="w" x="378441.7379486597" y="5882802.568776405" start_time="08:30:00" end_time="17:00:00" /><leg mode="car" /><act type="car charging interaction" link="14124527_0_r" x="455822.0766466624" y="5797157.910764554" end_time="20:30:00" /><leg mode="car" /><act type="h" x="353862.069365541" y="5831252.466098583" /></plan></person><person id="4"><plan selected="yes"><act type="h" x="399472.7050758074" y="5805771.635447295" end_time="08:00:00" /><leg mode="car" /><act type="w" x="363267.6057924032" y="5764069.233079811" start_time="08:30:00" end_time="17:00:00" /><leg mode="car" /><act type="car charging interaction" link="254413068_0_r" x="371403.62050203" y="5774840.315230275" end_time="20:30:00" /><leg mode="car" /><act type="h" x="399472.7050758074" y="5805771.635447295" /></plan></person><person id="5"><plan selected="yes"><act type="h" x="298740.9193456763" y="5712550.614542091" end_time="08:00:00" /><leg mode="car" /><act type="w" x="382396.2354271968" y="5786021.23843979" start_time="08:30:00" end_time="17:00:00" /><leg mode="car" /><act type="car charging interaction" link="256705756_0_r" x="293016.9750041008" y="5739701.237396283" end_time="20:30:00" /><leg mode="car" /><act type="h" x="298740.9193456763" y="5712550.614542091" /></plan></person><person id="6"><plan selected="yes"><act type="h" x="305471.3585323896" y="5701654.899737982" end_time="08:00:00" /><leg mode="car" /><act type="w" x="374424.03813260555" y="5740162.07605408" start_time="08:30:00" end_time="17:00:00" /><leg mode="car" /><act type="car charging interaction" link="589413231_0" x="414850.14702512225" y="5855041.208136778" end_time="20:30:00" /><leg mode="car" /><act type="h" x="305471.3585323896" y="5701654.899737982" /></plan></person><person id="7"><plan selected="yes"><act type="h" x="296026.9168118937" y="5800267.631998939" end_time="08:00:00" /><leg mode="car" /><act type="w" x="376040.43828195747" y="5871659.887083002" start_time="08:30:00" end_time="17:00:00" /><leg mode="car" /><act type="car charging interaction" link="217682695_1" x="358991.1921495893" y="5804035.056593178" end_time="20:30:00" /><leg mode="car" /><act type="h" x="296026.9168118937" y="5800267.631998939" /></plan></person><person id="8"><plan selected="yes"><act type="h" x="311274.93914218317" y="5752143.05654524" end_time="08:00:00" /><leg mode="car" /><act type="w" x="432645.03700837377" y="5847293.212645272" start_time="08:30:00" end_time="17:00:00" /><leg mode="car" /><act type="h" x="311274.93914218317" y="5752143.05654524" /></plan></person><person id="9"><plan selected="yes"><act type="h" x="349774.2653571565" y="5728520.2530849455" end_time="08:00:00" /><leg mode="car" /><act type="w" x="316259.58832479996" y="5705902.154594455" start_time="08:30:00" end_time="17:00:00" /><leg mode="car" /><act type="h" x="349774.2653571565" y="5728520.2530849455" /></plan></person><person id="10"><plan selected="yes"><act type="h" x="463037.72811253363" y="5729194.121040437" end_time="08:00:00" /><leg mode="car" /><act type="w" x="475739.4849050936" y="5773440.600269102" start_time="08:30:00" end_time="17:00:00" /><leg mode="car" /><act type="car charging interaction" link="25666080_0" x="309124.5224022704" y="5746366.966562825" end_time="20:30:00" /><leg mode="car" /><act type="h" x="463037.72811253363" y="5729194.121040437" /></plan></person><person id="11"><plan selected="yes"><act type="h" x="372339.1014294102" y="5775500.138168191" end_time="08:00:00" /><leg mode="car" /><act type="w" x="349497.32690161956" y="5690386.589216278" start_time="08:30:00" end_time="17:00:00" /><leg mode="car" /><act type="h" x="372339.1014294102" y="5775500.138168191" /></plan></person><person id="12"><plan selected="yes"><act type="h" x="451769.21320498845" y="5730584.72518795" end_time="08:00:00" /><leg mode="car" /><act type="w" x="391453.5926330987" y="5859140.8946245145" start_time="08:30:00" end_time="17:00:00" /><leg mode="car" /><act type="h" x="451769.21320498845" y="5730584.72518795" /></plan></person><person id="13"><plan selected="yes"><act type="h" x="455547.08552881854" y="5797082.226272367" end_time="08:00:00" /><leg mode="car" /><act type="w" x="479453.0241521457" y="5750398.746660442" start_time="08:30:00" end_time="17:00:00" /><leg mode="car" /><act type="car charging interaction" link="30885534_0" x="401962.9360309635" y="5797524.568525622" end_time="20:30:00" /><leg mode="car" /><act type="h" x="455547.08552881854" y="5797082.226272367" /></plan></person><person id="14"><plan selected="yes"><act type="h" x="356542.3922682943" y="5787125.946218899" end_time="08:00:00" /><leg mode="car" /><act type="w" x="301407.38528395933" y="5713188.27666029" start_time="08:30:00" end_time="17:00:00" /><leg mode="car" /><act type="car charging interaction" link="37910332_1" x="391265.78457681614" y="5808291.414589206" end_time="20:30:00" /><leg mode="car" /><act type="h" x="356542.3922682943" y="5787125.946218899" /></plan></person><person id="15"><plan selected="yes"><act type="h" x="426344.47222051816" y="5744005.557387042" end_time="08:00:00" /><leg mode="car" /><act type="w" x="337891.21561028995" y="5746825.844467021" start_time="08:30:00" end_time="17:00:00" /><leg mode="car" /><act type="h" x="426344.47222051816" y="5744005.557387042" /></plan></person><person id="16"><plan selected="yes"><act type="h" x="394577.22625876596" y="5813688.174056897" end_time="08:00:00" /><leg mode="car" /><act type="w" x="382857.457927127" y="5811381.675154761" start_time="08:30:00" end_time="17:00:00" /><leg mode="car" /><act type="h" x="394577.22625876596" y="5813688.174056897" /></plan></person><person id="17"><plan selected="yes"><act type="h" x="336472.6461598668" y="5802824.082828625" end_time="08:00:00" /><leg mode="car" /><act type="w" x="390218.53587113105" y="5812710.886320453" start_time="08:30:00" end_time="17:00:00" /><leg mode="car" /><act type="car charging interaction" link="652284453_0_r" x="282109.96247375093" y="5742611.157691222" end_time="20:30:00" /><leg mode="car" /><act type="h" x="336472.6461598668" y="5802824.082828625" /></plan></person><person id="18"><plan selected="yes"><act type="h" x="453844.63073642453" y="5732842.022863781" end_time="08:00:00" /><leg mode="car" /><act type="w" x="438590.68371511693" y="5701219.316904967" start_time="08:30:00" end_time="17:00:00" /><leg mode="car" /><act type="car charging interaction" link="142974758_0" x="462849.70738718554" y="5729341.48185469" end_time="20:30:00" /><leg mode="car" /><act type="h" x="453844.63073642453" y="5732842.022863781" /></plan></person><person id="19"><plan selected="yes"><act type="h" x="408108.0775052267" y="5790439.736103773" end_time="08:00:00" /><leg mode="car" /><act type="w" x="404715.5101138137" y="5795724.504057569" start_time="08:30:00" end_time="17:00:00" /><leg mode="car" /><act type="car charging interaction" link="403532157_0_r" x="457666.4732863916" y="5870483.821996843" end_time="20:30:00" /><leg mode="car" /><act type="h" x="408108.0775052267" y="5790439.736103773" /></plan></person><person id="20"><plan selected="yes"><act type="h" x="373387.0595914488" y="5816634.369400534" end_time="08:00:00" /><leg mode="car" /><act type="w" x="311600.36702294427" y="5724071.582394903" start_time="08:30:00" end_time="17:00:00" /><leg mode="car" /><act type="car charging interaction" link="30065536_0" x="305539.1897199722" y="5716108.346366939" end_time="20:30:00" /><leg mode="car" /><act type="h" x="373387.0595914488" y="5816634.369400534" /></plan></person><person id="21"><plan selected="yes"><act type="h" x="333316.1010209712" y="5718255.949162942" end_time="08:00:00" /><leg mode="car" /><act type="w" x="376514.33953739854" y="5858374.307194516" start_time="08:30:00" end_time="17:00:00" /><leg mode="car" /><act type="car charging interaction" link="324100356_0" x="388534.8487042347" y="5815055.860555801" end_time="20:30:00" /><leg mode="car" /><act type="h" x="333316.1010209712" y="5718255.949162942" /></plan></person><person id="22"><plan selected="yes"><act type="h" x="438840.1880039891" y="5799499.072123842" end_time="08:00:00" /><leg mode="car" /><act type="w" x="401253.8461926328" y="5818725.480092293" start_time="08:30:00" end_time="17:00:00" /><leg mode="car" /><act type="car charging interaction" link="565082259_0_r" x="408729.2598544839" y="5788769.409243887" end_time="20:30:00" /><leg mode="car" /><act type="h" x="438840.1880039891" y="5799499.072123842" /></plan></person><person id="23"><plan selected="yes"><act type="h" x="290686.4958386489" y="5885199.891399051" end_time="08:00:00" /><leg mode="car" /><act type="w" x="452992.20945575717" y="5757429.545488785" start_time="08:30:00" end_time="17:00:00" /><leg mode="car" /><act type="car charging interaction" link="318232977_0_r" x="286130.7483590101" y="5740141.078438332" end_time="20:30:00" /><leg mode="car" /><act type="h" x="290686.4958386489" y="5885199.891399051" /></plan></person><person id="24"><plan selected="yes"><act type="h" x="321674.7169317221" y="5703584.213005987" end_time="08:00:00" /><leg mode="car" /><act type="w" x="389824.1470465132" y="5796426.107662864" start_time="08:30:00" end_time="17:00:00" /><leg mode="car" /><act type="h" x="321674.7169317221" y="5703584.213005987" /></plan></person><person id="25"><plan selected="yes"><act type="h" x="463690.5589275487" y="5810258.08043569" end_time="08:00:00" /><leg mode="car" /><act type="w" x="308711.9132313484" y="5736714.017438104" start_time="08:30:00" end_time="17:00:00" /><leg mode="car" /><act type="h" x="463690.5589275487" y="5810258.08043569" /></plan></person><person id="26"><plan selected="yes"><act type="h" x="406068.1806684823" y="5890438.113945245" end_time="08:00:00" /><leg mode="car" /><act type="w" x="394790.83785715245" y="5817981.565097139" start_time="08:30:00" end_time="17:00:00" /><leg mode="car" /><act type="car charging interaction" link="24813883_0_r" x="374342.14185138117" y="5760934.9195270045" end_time="20:30:00" /><leg mode="car" /><act type="h" x="406068.1806684823" y="5890438.113945245" /></plan></person><person id="27"><plan selected="yes"><act type="h" x="314022.7882284596" y="5690547.478184055" end_time="08:00:00" /><leg mode="car" /><act type="w" x="307465.9224875575" y="5716691.893032094" start_time="08:30:00" end_time="17:00:00" /><leg mode="car" /><act type="h" x="314022.7882284596" y="5690547.478184055" /></plan></person><person id="28"><plan selected="yes"><act type="h" x="478116.7007588812" y="5762251.482780632" end_time="08:00:00" /><leg mode="car" /><act type="w" x="368062.12240179116" y="5806626.39074743" start_time="08:30:00" end_time="17:00:00" /><leg mode="car" /><act type="car charging interaction" link="192127831_0" x="423306.44221102714" y="5816075.673797644" end_time="20:30:00" /><leg mode="car" /><act type="h" x="478116.7007588812" y="5762251.482780632" /></plan></person><person id="29"><plan selected="yes"><act type="h" x="400233.55368829647" y="5790836.40754834" end_time="08:00:00" /><leg mode="car" /><act type="w" x="315134.26336326404" y="5694839.676958654" start_time="08:30:00" end_time="17:00:00" /><leg mode="car" /><act type="car charging interaction" link="30198527_0_r" x="366830.65418641164" y="5797657.703767644" end_time="20:30:00" /><leg mode="car" /><act type="h" x="400233.55368829647" y="5790836.40754834" /></plan></person><person id="30"><plan selected="yes"><act type="h" x="351264.6025973896" y="5715200.478134345" end_time="08:00:00" /><leg mode="car" /><act type="w" x="381380.1399795417" y="5830834.900803936" start_time="08:30:00" end_time="17:00:00" /><leg mode="car" /><act type="car charging interaction" link="531435586_0" x="456298.71542351856" y="5823541.375365813" end_time="20:30:00" /><leg mode="car" /><act type="h" x="351264.6025973896" y="5715200.478134345" /></plan></person><person id="31"><plan selected="yes"><act type="h" x="420048.85732255585" y="5749325.725969895" end_time="08:00:00" /><leg mode="car" /><act type="w" x="289598.4698925801" y="5699083.2036447665" start_time="08:30:00" end_time="17:00:00" /><leg mode="car" /><act type="car charging interaction" link="4424240_0" x="371405.6498026634" y="5808774.479391673" end_time="20:30:00" /><leg mode="car" /><act type="h" x="420048.85732255585" y="5749325.725969895" /></plan></person><person id="32"><plan selected="yes"><act type="h" x="368073.4981280678" y="5806631.672613083" end_time="08:00:00" /><leg mode="car" /><act type="w" x="348976.7520816121" y="5708841.774728565" start_time="08:30:00" end_time="17:00:00" /><leg mode="car" /><act type="h" x="368073.4981280678" y="5806631.672613083" /></plan></person><person id="33"><plan selected="yes"><act type="h" x="425911.45839107496" y="5744271.630039687" end_time="08:00:00" /><leg mode="car" /><act type="w" x="376560.77046216547" y="5874230.161778399" start_time="08:30:00" end_time="17:00:00" /><leg mode="car" /><act type="h" x="425911.45839107496" y="5744271.630039687" /></plan></person><person id="34"><plan selected="yes"><act type="h" x="397888.41152825416" y="5810324.704271717" end_time="08:00:00" /><leg mode="car" /><act type="w" x="334171.33510767535" y="5702017.830270436" start_time="08:30:00" end_time="17:00:00" /><leg mode="car" /><act type="h" x="397888.41152825416" y="5810324.704271717" /></plan></person><person id="35"><plan selected="yes"><act type="h" x="381360.83742319007" y="5830818.855056073" end_time="08:00:00" /><leg mode="car" /><act type="w" x="397223.4243496371" y="5826886.781896991" start_time="08:30:00" end_time="17:00:00" /><leg mode="car" /><act type="h" x="381360.83742319007" y="5830818.855056073" /></plan></person><person id="36"><plan selected="yes"><act type="h" x="399501.841094784" y="5797496.482247591" end_time="08:00:00" /><leg mode="car" /><act type="w" x="377059.2822792288" y="5728048.327738639" start_time="08:30:00" end_time="17:00:00" /><leg mode="car" /><act type="car charging interaction" link="374082575_0" x="333684.3657561493" y="5710959.927841099" end_time="20:30:00" /><leg mode="car" /><act type="h" x="399501.841094784" y="5797496.482247591" /></plan></person><person id="37"><plan selected="yes"><act type="h" x="312164.0511455062" y="5696249.665692897" end_time="08:00:00" /><leg mode="car" /><act type="w" x="379665.3062368643" y="5842634.7744871965" start_time="08:30:00" end_time="17:00:00" /><leg mode="car" /><act type="car charging interaction" link="45831407_0" x="347057.6132214992" y="5763025.64021531" end_time="20:30:00" /><leg mode="car" /><act type="h" x="312164.0511455062" y="5696249.665692897" /></plan></person><person id="38"><plan selected="yes"><act type="h" x="316046.54422286456" y="5791803.119411634" end_time="08:00:00" /><leg mode="car" /><act type="w" x="432805.4338259378" y="5847304.128790063" start_time="08:30:00" end_time="17:00:00" /><leg mode="car" /><act type="h" x="316046.54422286456" y="5791803.119411634" /></plan></person><person id="39"><plan selected="yes"><act type="h" x="375388.3007426781" y="5820453.984885577" end_time="08:00:00" /><leg mode="car" /><act type="w" x="372066.78578168334" y="5751104.537717646" start_time="08:30:00" end_time="17:00:00" /><leg mode="car" /><act type="car charging interaction" link="583226946_0_r" x="413687.3507939924" y="5702095.399954173" end_time="20:30:00" /><leg mode="car" /><act type="h" x="375388.3007426781" y="5820453.984885577" /></plan></person><person id="40"><plan selected="yes"><act type="h" x="318137.5604351152" y="5691592.771189497" end_time="08:00:00" /><leg mode="car" /><act type="w" x="400828.034754298" y="5804110.131486893" start_time="08:30:00" end_time="17:00:00" /><leg mode="car" /><act type="h" x="318137.5604351152" y="5691592.771189497" /></plan></person><person id="41"><plan selected="yes"><act type="h" x="376056.6491920177" y="5894390.29827031" end_time="08:00:00" /><leg mode="car" /><act type="w" x="402477.5856941182" y="5822616.030670664" start_time="08:30:00" end_time="17:00:00" /><leg mode="car" /><act type="car charging interaction" link="314953901_2_r" x="410355.9293234504" y="5721536.295640544" end_time="20:30:00" /><leg mode="car" /><act type="h" x="376056.6491920177" y="5894390.29827031" /></plan></person><person id="42"><plan selected="yes"><act type="h" x="480002.2027603607" y="5705706.969995218" end_time="08:00:00" /><leg mode="car" /><act type="w" x="384906.07971159637" y="5804240.040952919" start_time="08:30:00" end_time="17:00:00" /><leg mode="car" /><act type="h" x="480002.2027603607" y="5705706.969995218" /></plan></person><person id="43"><plan selected="yes"><act type="h" x="378423.45375935145" y="5796062.636487404" end_time="08:00:00" /><leg mode="car" /><act type="w" x="484873.21357550466" y="5698650.760499563" start_time="08:30:00" end_time="17:00:00" /><leg mode="car" /><act type="h" x="378423.45375935145" y="5796062.636487404" /></plan></person><person id="44"><plan selected="yes"><act type="h" x="307459.7030243784" y="5698299.804914815" end_time="08:00:00" /><leg mode="car" /><act type="w" x="446523.3713374884" y="5781938.941197347" start_time="08:30:00" end_time="17:00:00" /><leg mode="car" /><act type="h" x="307459.7030243784" y="5698299.804914815" /></plan></person><person id="45"><plan selected="yes"><act type="h" x="387330.29862356954" y="5814590.059016224" end_time="08:00:00" /><leg mode="car" /><act type="w" x="463093.5106757658" y="5729058.733236544" start_time="08:30:00" end_time="17:00:00" /><leg mode="car" /><act type="car charging interaction" link="257230054_0" x="446667.0744580344" y="5884166.751799455" end_time="20:30:00" /><leg mode="car" /><act type="h" x="387330.29862356954" y="5814590.059016224" /></plan></person><person id="46"><plan selected="yes"><act type="h" x="317172.9855071498" y="5701135.109878084" end_time="08:00:00" /><leg mode="car" /><act type="w" x="383403.50643954886" y="5840154.48435709" start_time="08:30:00" end_time="17:00:00" /><leg mode="car" /><act type="h" x="317172.9855071498" y="5701135.109878084" /></plan></person><person id="47"><plan selected="yes"><act type="h" x="291897.58457246027" y="5791563.347429864" end_time="08:00:00" /><leg mode="car" /><act type="w" x="439435.3667062781" y="5880862.700763974" start_time="08:30:00" end_time="17:00:00" /><leg mode="car" /><act type="h" x="291897.58457246027" y="5791563.347429864" /></plan></person><person id="48"><plan selected="yes"><act type="h" x="389649.3084692021" y="5818197.549335495" end_time="08:00:00" /><leg mode="car" /><act type="w" x="401549.30901346065" y="5806913.00338152" start_time="08:30:00" end_time="17:00:00" /><leg mode="car" /><act type="h" x="389649.3084692021" y="5818197.549335495" /></plan></person><person id="49"><plan selected="yes"><act type="h" x="364561.77582628326" y="5794642.684585835" end_time="08:00:00" /><leg mode="car" /><act type="w" x="346710.6563134814" y="5784309.815022966" start_time="08:30:00" end_time="17:00:00" /><leg mode="car" /><act type="h" x="364561.77582628326" y="5794642.684585835" /></plan></person><person id="50"><plan selected="yes"><act type="h" x="418393.2483201295" y="5854747.712022891" end_time="08:00:00" /><leg mode="car" /><act type="w" x="421469.8713071833" y="5848403.887970755" start_time="08:30:00" end_time="17:00:00" /><leg mode="car" /><act type="car charging interaction" link="288164396_0_r" x="409494.14194466965" y="5739112.5430040825" end_time="20:30:00" /><leg mode="car" /><act type="h" x="418393.2483201295" y="5854747.712022891" /></plan></person><person id="51"><plan selected="yes"><act type="h" x="288481.37686324527" y="5787131.192781988" end_time="08:00:00" /><leg mode="car" /><act type="w" x="481220.7490617176" y="5869854.324065792" start_time="08:30:00" end_time="17:00:00" /><leg mode="car" /><act type="h" x="288481.37686324527" y="5787131.192781988" /></plan></person><person id="52"><plan selected="yes"><act type="h" x="307818.81533624703" y="5792452.589077506" end_time="08:00:00" /><leg mode="car" /><act type="w" x="291254.29735142685" y="5704548.944396763" start_time="08:30:00" end_time="17:00:00" /><leg mode="car" /><act type="h" x="307818.81533624703" y="5792452.589077506" /></plan></person><person id="53"><plan selected="yes"><act type="h" x="450907.3535180766" y="5729610.6962902555" end_time="08:00:00" /><leg mode="car" /><act type="w" x="384062.21187697764" y="5819196.048755431" start_time="08:30:00" end_time="17:00:00" /><leg mode="car" /><act type="car charging interaction" link="143486198_0" x="450205.0057852359" y="5728156.305545682" end_time="20:30:00" /><leg mode="car" /><act type="h" x="450907.3535180766" y="5729610.6962902555" /></plan></person><person id="54"><plan selected="yes"><act type="h" x="309696.1641142783" y="5750397.720415691" end_time="08:00:00" /><leg mode="car" /><act type="w" x="467179.0223507487" y="5797167.929815126" start_time="08:30:00" end_time="17:00:00" /><leg mode="car" /><act type="car charging interaction" link="4549231_0_r" x="321050.7414059045" y="5741763.493850569" end_time="20:30:00" /><leg mode="car" /><act type="h" x="309696.1641142783" y="5750397.720415691" /></plan></person><person id="55"><plan selected="yes"><act type="h" x="289084.91936255526" y="5707547.3049601" end_time="08:00:00" /><leg mode="car" /><act type="w" x="297207.0192592414" y="5707091.559820582" start_time="08:30:00" end_time="17:00:00" /><leg mode="car" /><act type="h" x="289084.91936255526" y="5707547.3049601" /></plan></person><person id="56"><plan selected="yes"><act type="h" x="395487.3415516106" y="5821034.16563318" end_time="08:00:00" /><leg mode="car" /><act type="w" x="464777.5604423199" y="5727431.230081969" start_time="08:30:00" end_time="17:00:00" /><leg mode="car" /><act type="h" x="395487.3415516106" y="5821034.16563318" /></plan></person><person id="57"><plan selected="yes"><act type="h" x="401097.3026482127" y="5830484.639501992" end_time="08:00:00" /><leg mode="car" /><act type="w" x="402544.6137079848" y="5830731.386951508" start_time="08:30:00" end_time="17:00:00" /><leg mode="car" /><act type="h" x="401097.3026482127" y="5830484.639501992" /></plan></person><person id="58"><plan selected="yes"><act type="h" x="390671.49925801286" y="5819781.983185415" end_time="08:00:00" /><leg mode="car" /><act type="w" x="284528.90727489546" y="5794580.811411691" start_time="08:30:00" end_time="17:00:00" /><leg mode="car" /><act type="h" x="390671.49925801286" y="5819781.983185415" /></plan></person><person id="59"><plan selected="yes"><act type="h" x="393825.479971542" y="5827208.119428919" end_time="08:00:00" /><leg mode="car" /><act type="w" x="290271.774896263" y="5701010.815003339" start_time="08:30:00" end_time="17:00:00" /><leg mode="car" /><act type="car charging interaction" link="369745608_0_r" x="275327.27142852417" y="5765147.8756361045" end_time="20:30:00" /><leg mode="car" /><act type="h" x="393825.479971542" y="5827208.119428919" /></plan></person><person id="60"><plan selected="yes"><act type="h" x="279310.6961017085" y="5743363.109583137" end_time="08:00:00" /><leg mode="car" /><act type="w" x="358437.34217611153" y="5782290.177816213" start_time="08:30:00" end_time="17:00:00" /><leg mode="car" /><act type="car charging interaction" link="313161513_0_r" x="400073.0462593" y="5886444.594402567" end_time="20:30:00" /><leg mode="car" /><act type="h" x="279310.6961017085" y="5743363.109583137" /></plan></person><person id="61"><plan selected="yes"><act type="h" x="403724.6543317503" y="5818163.4123364305" end_time="08:00:00" /><leg mode="car" /><act type="w" x="388026.43929871527" y="5818331.441597127" start_time="08:30:00" end_time="17:00:00" /><leg mode="car" /><act type="h" x="403724.6543317503" y="5818163.4123364305" /></plan></person><person id="62"><plan selected="yes"><act type="h" x="301733.0586874975" y="5826374.207370444" end_time="08:00:00" /><leg mode="car" /><act type="w" x="394477.5318617995" y="5802400.966779513" start_time="08:30:00" end_time="17:00:00" /><leg mode="car" /><act type="car charging interaction" link="143486198_0" x="450205.0057852359" y="5728156.305545682" end_time="20:30:00" /><leg mode="car" /><act type="h" x="301733.0586874975" y="5826374.207370444" /></plan></person><person id="63"><plan selected="yes"><act type="h" x="440408.25756557216" y="5795712.736604834" end_time="08:00:00" /><leg mode="car" /><act type="w" x="309684.01510920015" y="5749969.695614781" start_time="08:30:00" end_time="17:00:00" /><leg mode="car" /><act type="h" x="440408.25756557216" y="5795712.736604834" /></plan></person><person id="64"><plan selected="yes"><act type="h" x="356770.821456037" y="5831381.226538411" end_time="08:00:00" /><leg mode="car" /><act type="w" x="433167.5715858273" y="5873014.345548461" start_time="08:30:00" end_time="17:00:00" /><leg mode="car" /><act type="car charging interaction" link="318232977_0_r" x="286130.7483590101" y="5740141.078438332" end_time="20:30:00" /><leg mode="car" /><act type="h" x="356770.821456037" y="5831381.226538411" /></plan></person><person id="65"><plan selected="yes"><act type="h" x="291973.4181931241" y="5739008.28924808" end_time="08:00:00" /><leg mode="car" /><act type="w" x="394625.37530885235" y="5796487.596410871" start_time="08:30:00" end_time="17:00:00" /><leg mode="car" /><act type="h" x="291973.4181931241" y="5739008.28924808" /></plan></person><person id="66"><plan selected="yes"><act type="h" x="408641.11971898697" y="5796627.723086902" end_time="08:00:00" /><leg mode="car" /><act type="w" x="288816.2228888479" y="5886851.755231358" start_time="08:30:00" end_time="17:00:00" /><leg mode="car" /><act type="car charging interaction" link="254839826_0" x="475563.3298431511" y="5755987.394437263" end_time="20:30:00" /><leg mode="car" /><act type="h" x="408641.11971898697" y="5796627.723086902" /></plan></person><person id="67"><plan selected="yes"><act type="h" x="402512.8827370851" y="5818517.521642596" end_time="08:00:00" /><leg mode="car" /><act type="w" x="362028.2983286239" y="5824666.783546943" start_time="08:30:00" end_time="17:00:00" /><leg mode="car" /><act type="car charging interaction" link="254357196_0" x="383562.7883256485" y="5801626.030094706" end_time="20:30:00" /><leg mode="car" /><act type="h" x="402512.8827370851" y="5818517.521642596" /></plan></person><person id="68"><plan selected="yes"><act type="h" x="388057.2366253797" y="5815015.381525159" end_time="08:00:00" /><leg mode="car" /><act type="w" x="395691.8517515604" y="5819428.755117471" start_time="08:30:00" end_time="17:00:00" /><leg mode="car" /><act type="car charging interaction" link="627587491_1_r" x="368006.82854929013" y="5805667.951687248" end_time="20:30:00" /><leg mode="car" /><act type="h" x="388057.2366253797" y="5815015.381525159" /></plan></person><person id="69"><plan selected="yes"><act type="h" x="387547.9437996895" y="5814836.86622299" end_time="08:00:00" /><leg mode="car" /><act type="w" x="290439.48082715925" y="5830045.09144391" start_time="08:30:00" end_time="17:00:00" /><leg mode="car" /><act type="h" x="387547.9437996895" y="5814836.86622299" /></plan></person><person id="70"><plan selected="yes"><act type="h" x="321959.25379828934" y="5730671.87704637" end_time="08:00:00" /><leg mode="car" /><act type="w" x="279938.1079172297" y="5878015.053376282" start_time="08:30:00" end_time="17:00:00" /><leg mode="car" /><act type="car charging interaction" link="166996073_0" x="276670.11565098155" y="5782032.983462993" end_time="20:30:00" /><leg mode="car" /><act type="h" x="321959.25379828934" y="5730671.87704637" /></plan></person><person id="71"><plan selected="yes"><act type="h" x="477896.82050533936" y="5833361.903113151" end_time="08:00:00" /><leg mode="car" /><act type="w" x="313845.92189200816" y="5690738.6980430195" start_time="08:30:00" end_time="17:00:00" /><leg mode="car" /><act type="h" x="477896.82050533936" y="5833361.903113151" /></plan></person><person id="72"><plan selected="yes"><act type="h" x="281706.62471140816" y="5790579.463858034" end_time="08:00:00" /><leg mode="car" /><act type="w" x="395148.76893255545" y="5817806.528799601" start_time="08:30:00" end_time="17:00:00" /><leg mode="car" /><act type="car charging interaction" link="125301256_0" x="454101.2894648241" y="5779616.064789836" end_time="20:30:00" /><leg mode="car" /><act type="h" x="281706.62471140816" y="5790579.463858034" /></plan></person><person id="73"><plan selected="yes"><act type="h" x="400817.82991124265" y="5804090.976786646" end_time="08:00:00" /><leg mode="car" /><act type="w" x="310103.70069448184" y="5739078.466731314" start_time="08:30:00" end_time="17:00:00" /><leg mode="car" /><act type="h" x="400817.82991124265" y="5804090.976786646" /></plan></person><person id="74"><plan selected="yes"><act type="h" x="316282.7452693747" y="5691222.811514646" end_time="08:00:00" /><leg mode="car" /><act type="w" x="397574.3422512111" y="5702093.