<?xml version="1.0" ?>
<!DOCTYPE plans SYSTEM "http://www.matsim.org/files/dtd/plans_v4.dtd">
<plans xml:lang="de-CH"><person id="1"><plan selected="yes"><act type="h" x="382062.5530685706" y="5796545.708205742" end_time="09:00:00" /><leg mode="car" /><act type="h" x="387113.230784929" y="5828390.129268111" end_time="18:00:00" /><leg mode="car" /><act type="h" x="5828390.129268111" y="387113.230784929" /></plan></person><person id="2"><plan selected="yes"><act type="h" x="361762.3998015252" y="5824886.905066058" end_time="09:00:00" /><leg mode="car" /><act type="h" x="279980.79337292456" y="5861574.047877194" end_time="18:00:00" /><leg mode="car" /><act type="h" x="5861574.047877194" y="279980.79337292456" /></plan></person><person id="3"><plan selected="yes"><act type="h" x="391171.6715627662" y="5808581.6748063" end_time="09:00:00" /><leg mode="car" /><act type="h" x="397558.69576808426" y="5831587.784334068" end_time="18:00:00" /><leg mode="car" /><act type="h" x="5831587.784334068" y="397558.69576808426" /></plan></person><person id="4"><plan selected="yes"><act type="h" x="425362.71572864155" y="5796843.79663052" end_time="09:00:00" /><leg mode="car" /><act type="h" x="391115.0506283267" y="5696032.041642887" end_time="18:00:00" /><leg mode="car" /><act type="h" x="5696032.041642887" y="391115.0506283267" /></plan></person><person id="5"><plan selected="yes"><act type="h" x="315570.1411889488" y="5712124.712469971" end_time="09:00:00" /><leg mode="car" /><act type="h" x="451204.1474429455" y="5701446.720624143" end_time="18:00:00" /><leg mode="car" /><act type="h" x="5701446.720624143" y="451204.1474429455" /></plan></person><person id="6"><plan selected="yes"><act type="h" x="473481.4082460116" y="5796928.788469095" end_time="09:00:00" /><leg mode="car" /><act type="h" x="446182.7925612055" y="5777866.798021298" end_time="18:00:00" /><leg mode="car" /><act type="h" x="5777866.798021298" y="446182.7925612055" /></plan></person><person id="7"><plan selected="yes"><act type="h" x="318438.3690633847" y="5694888.740562332" end_time="09:00:00" /><leg mode="car" /><act type="h" x="393312.52322122734" y="5820396.289139909" end_time="18:00:00" /><leg mode="car" /><act type="h" x="5820396.289139909" y="393312.52322122734" /></plan></person><person id="8"><plan selected="yes"><act type="h" x="362652.9184936112" y="5828029.5948958285" end_time="09:00:00" /><leg mode="car" /><act type="h" x="330713.8735175922" y="5809979.134307977" end_time="18:00:00" /><leg mode="car" /><act type="h" x="5809979.134307977" y="330713.8735175922" /></plan></person><person id="9"><plan selected="yes"><act type="h" x="319610.22521821514" y="5697654.617007154" end_time="09:00:00" /><leg mode="car" /><act type="h" x="458512.1582837823" y="5744443.229074205" end_time="18:00:00" /><leg mode="car" /><act type="h" x="5744443.229074205" y="458512.1582837823" /></plan></person><person id="10"><plan selected="yes"><act type="h" x="359884.4913142419" y="5803480.43622419" end_time="09:00:00" /><leg mode="car" /><act type="h" x="403053.3299215678" y="5791051.29047866" end_time="18:00:00" /><leg mode="car" /><act type="h" x="5791051.29047866" y="403053.3299215678" /></plan></person><person id="11"><plan selected="yes"><act type="h" x="304840.65860234253" y="5700133.144007691" end_time="09:00:00" /><leg mode="car" /><act type="h" x="443983.2453150481" y="5696978.299829193" end_time="18:00:00" /><leg mode="car" /><act type="h" x="5696978.299829193" y="443983.2453150481" /></plan></person><person id="12"><plan selected="yes"><act type="h" x="311273.8165223869" y="5890931.549576628" end_time="09:00:00" /><leg mode="car" /><act type="h" x="336462.8914623349" y="5785592.170239376" end_time="18:00:00" /><leg mode="car" /><act type="h" x="5785592.170239376" y="336462.8914623349" /></plan></person><person id="13"><plan selected="yes"><act type="h" x="387620.36613751703" y="5816402.095276278" end_time="09:00:00" /><leg mode="car" /><act type="h" x="305202.03019840014" y="5698291.43717879" end_time="18:00:00" /><leg mode="car" /><act type="h" x="5698291.43717879" y="305202.03019840014" /></plan></person><person id="14"><plan selected="yes"><act type="h" x="359173.1413516095" y="5739810.898382409" end_time="09:00:00" /><leg mode="car" /><act type="h" x="432848.7189818625" y="5766550.750817127" end_time="18:00:00" /><leg mode="car" /><act type="h" x="5766550.750817127" y="432848.7189818625" /></plan></person></plans>