<?xml version="1.0"?>
<!DOCTYPE plans SYSTEM "http://www.matsim.org/files/dtd/plans_v4.dtd">
<plans xml:lang="de-CH">
	<person id="1">
		<plan selected="yes">
			<act type="h" x="452778.55396695243" y="5778669.929408335" end_time="08:00:00" />
			<leg mode="car" />
			<act type="h" x="399577.7700410098" y="5821644.853184969" />
		</plan>
	</person>
	<person id="2">
		<plan selected="yes">
			<act type="h" x="398780.39439275087" y="5812802.363745126" end_time="08:00:00" />
			<leg mode="car" />
			<act type="h" x="460105.8268821443" y="5816252.432309628" />
		</plan>
	</person>
	<person id="3">
		<plan selected="yes">
			<act type="h" x="376174.66412218625" y="5734670.68326323" end_time="08:00:00" />
			<leg mode="car" />
			<act type="h" x="474538.558921532" y="5755854.02278746" />
		</plan>
	</person>
	<person id="4">
		<plan selected="yes">
			<act type="h" x="363504.11973342934" y="5740245.4523821995" end_time="08:00:00" />
			<leg mode="car" />
			<act type="h" x="400782.0383844262" y="5810525.903321194" />
		</plan>
	</person>
	<person id="5">
		<plan selected="yes">
			<act type="h" x="389068.1131457531" y="5821740.465520038" end_time="08:00:00" />
			<leg mode="car" />
			<act type="h" x="340002.549874848" y="5748449.207384318" />
		</plan>
	</person>
	<person id="6">
		<plan selected="yes">
			<act type="h" x="465679.202928376" y="5776772.410360271" end_time="08:00:00" />
			<leg mode="car" />
			<act type="h" x="423741.745578323" y="5839458.77388393" />
		</plan>
	</person>
	<person id="7">
		<plan selected="yes">
			<act type="h" x="435321.6597367362" y="5701961.849260251" end_time="08:00:00" />
			<leg mode="car" />
			<act type="h" x="388674.0813535637" y="5823148.152390969" />
		</plan>
	</person>
	<person id="8">
		<plan selected="yes">
			<act type="h" x="477246.6196814738" y="5834537.667353826" end_time="08:00:00" />
			<leg mode="car" />
			<act type="h" x="364077.9180996226" y="5810526.035140223" />
		</plan>
	</person>
	<person id="9">
		<plan selected="yes">
			<act type="h" x="316264.53013597656" y="5694877.35717696" end_time="08:00:00" />
			<leg mode="car" />
			<act type="h" x="281942.1564837622" y="5701439.121933945" />
		</plan>
	</person>
	<person id="10">
		<plan selected="yes">
			<act type="h" x="475250.7159480648" y="5775445.424072328" end_time="08:00:00" />
			<leg mode="car" />
			<act type="h" x="362545.3299056283" y="5823039.133167797" />
		</plan>
	</person>
	<person id="11">
		<plan selected="yes">
			<act type="h" x="363480.80559446174" y="5863398.628352568" end_time="08:00:00" />
			<leg mode="car" />
			<act type="h" x="276481.6208895196" y="5781426.710130459" />
		</plan>
	</person>
	<person id="12">
		<plan selected="yes">
			<act type="h" x="299679.9017390004" y="5791027.947690828" end_time="08:00:00" />
			<leg mode="car" />
			<act type="h" x="359901.88302236365" y="5803466.418248937" />
		</plan>
	</person>
	<person id="13">
		<plan selected="yes">
			<act type="h" x="387042.9143265218" y="5732263.720005727" end_time="08:00:00" />
			<leg mode="car" />
			<act type="h" x="302800.9914162626" y="5857084.0853094105" />
		</plan>
	</person>
	<person id="14">
		<plan selected="yes">
			<act type="h" x="412250.23938948533" y="5746633.14584483" end_time="08:00:00" />
			<leg mode="car" />
			<act type="h" x="449070.0157651409" y="5808693.246937162" />
		</plan>
	</person>
	<person id="15">
		<plan selected="yes">
			<act type="h" x="281793.6914446335" y="5706112.168335905" end_time="08:00:00" />
			<leg mode="car" />
			<act type="h" x="364280.4377067563" y="5763254.274773227" />
		</plan>
	</person>
	<person id="16">
		<plan selected="yes">
			<act type="h" x="389558.8581648427" y="5810022.143126373" end_time="08:00:00" />
			<leg mode="car" />
			<act type="h" x="351201.0188809576" y="5801490.035827954" />
		</plan>
	</person>
	<person id="17">
		<plan selected="yes">
			<act type="h" x="305138.69845363067" y="5715427.550661503" end_time="08:00:00" />
			<leg mode="car" />
			<act type="h" x="338922.2350619514" y="5748508.760842605" />
		</plan>
	</person>
	<person id="18">
		<plan selected="yes">
			<act type="h" x="350786.83067138144" y="5715245.008966606" end_time="08:00:00" />
			<leg mode="car" />
			<act type="h" x="400402.52564105863" y="5818757.74401528" />
		</plan>
	</person>
	<person id="19">
		<plan selected="yes">
			<act type="h" x="333148.09764308017" y="5723160.391922263" end_time="08:00:00" />
			<leg mode="car" />
			<act type="h" x="299682.24935222405" y="5756654.817947268" />
		</plan>
	</person>
	<person id="20">
		<plan selected="yes">
			<act type="h" x="376016.6817732577" y="5776485.271246705" end_time="08:00:00" />
			<leg mode="car" />
			<act type="h" x="433137.17759922286" y="5690148.939562093" />
		</plan>
	</person>
	<person id="21">
		<plan selected="yes">
			<act type="h" x="285819.40327439504" y="5777142.143103954" end_time="08:00:00" />
			<leg mode="car" />
			<act type="h" x="361606.9831836978" y="5789260.1975765005" />
		</plan>
	</person>
	<person id="22">
		<plan selected="yes">
			<act type="h" x="470903.8203114764" y="5796162.700648201" end_time="08:00:00" />
			<leg mode="car" />
			<act type="h" x="362819.84279451217" y="5822906.8707778305" />
		</plan>
	</person>
	<person id="23">
		<plan selected="yes">
			<act type="h" x="369710.2187718422" y="5786338.090435312" end_time="08:00:00" />
			<leg mode="car" />
			<act type="h" x="405734.13142551354" y="5828881.754889032" />
		</plan>
	</person>
	<person id="24">
		<plan selected="yes">
			<act type="h" x="325985.9008190468" y="5892007.11521988" end_time="08:00:00" />
			<leg mode="car" />
			<act type="h" x="406667.2720445629" y="5796418.730257063" />
		</plan>
	</person>
	<person id="25">
		<plan selected="yes">
			<act type="h" x="332767.0714285565" y="5692620.907869492" end_time="08:00:00" />
			<leg mode="car" />
			<act type="h" x="387098.98577749473" y="5828526.143727574" />
		</plan>
	</person>
	<person id="26">
		<plan selected="yes">
			<act type="h" x="429031.145493701" y="5796210.863166741" end_time="08:00:00" />
			<leg mode="car" />
			<act type="h" x="382494.806468848" y="5811206.522761775" />
		</plan>
	</person>
	<person id="27">
		<plan selected="yes">
			<act type="h" x="351210.8780245505" y="5801919.451736542" end_time="08:00:00" />
			<leg mode="car" />
			<act type="h" x="316373.0054615539" y="5694901.271839778" />
		</plan>
	</person>
	<person id="28">
		<plan selected="yes">
			<act type="h" x="290753.68473227206" y="5703266.734757905" end_time="08:00:00" />
			<leg mode="car" />
			<act type="h" x="355229.37022743054" y="5808066.314349986" />
		</plan>
	</person>
	<person id="29">
		<plan selected="yes">
			<act type="h" x="369484.81833657634" y="5764218.956242926" end_time="08:00:00" />
			<leg mode="car" />
			<act type="h" x="458729.5378237622" y="5789226.740385644" />
		</plan>
	</person>
	<person id="30">
		<plan selected="yes">
			<act type="h" x="282162.848895135" y="5774420.932901523" end_time="08:00:00" />
			<leg mode="car" />
			<act type="h" x="450934.26528440556" y="5694184.375045502" />
		</plan>
	</person>
	<person id="31">
		<plan selected="yes">
			<act type="h" x="376403.82150374656" y="5806965.431812371" end_time="08:00:00" />
			<leg mode="car" />
			<act type="h" x="456982.43329495966" y="5737359.513025279" />
		</plan>
	</person>
	<person id="32">
		<plan selected="yes">
			<act type="h" x="453728.80474464863" y="5826125.846671033" end_time="08:00:00" />
			<leg mode="car" />
			<act type="h" x="389385.3866094061" y="5819648.6945199715" />
		</plan>
	</person>
	<person id="33">
		<plan selected="yes">
			<act type="h" x="463640.9403346043" y="5713490.242364985" end_time="08:00:00" />
			<leg mode="car" />
			<act type="h" x="462442.27116354444" y="5889257.106646662" />
		</plan>
	</person>
	<person id="34">
		<plan selected="yes">
			<act type="h" x="475843.9476250891" y="5825783.120143191" end_time="08:00:00" />
			<leg mode="car" />
			<act type="h" x="311891.9725448414" y="5691027.29244211" />
		</plan>
	</person>
	<person id="35">
		<plan selected="yes">
			<act type="h" x="392792.14732021274" y="5796220.44083155" end_time="08:00:00" />
			<leg mode="car" />
			<act type="h" x="291951.8421033821" y="5883779.233535232" />
		</plan>
	</person>
	<person id="36">
		<plan selected="yes">
			<act type="h" x="382765.8085963051" y="5794608.0603977535" end_time="08:00:00" />
			<leg mode="car" />
			<act type="h" x="393329.3332014715" y="5820378.43056012" />
		</plan>
	</person>
	<person id="37">
		<plan selected="yes">
			<act type="h" x="292764.8738988149" y="5704443.248025982" end_time="08:00:00" />
			<leg mode="car" />
			<act type="h" x="305241.1616835921" y="5808455.8829654725" />
		</plan>
	</person>
	<person id="38">
		<plan selected="yes">
			<act type="h" x="455764.1265620137" y="5819001.080351884" end_time="08:00:00" />
			<leg mode="car" />
			<act type="h" x="331089.74600433186" y="5860068.77167376" />
		</plan>
	</person>
	<person id="39">
		<plan selected="yes">
			<act type="h" x="450816.2790951461" y="5695031.071947015" end_time="08:00:00" />
			<leg mode="car" />
			<act type="h" x="394499.5243342542" y="5832861.274207848" />
		</plan>
	</person>
	<person id="40">
		<plan selected="yes">
			<act type="h" x="391599.92586321756" y="5819183.29180853" end_time="08:00:00" />
			<leg mode="car" />
			<act type="h" x="333841.352325916" y="5765563.470068835" />
		</plan>
	</person>
	<person id="41">
		<plan selected="yes">
			<act type="h" x="319881.99137701956" y="5838332.985852607" end_time="08:00:00" />
			<leg mode="car" />
			<act type="h" x="422298.1494865535" y="5771426.330011504" />
		</plan>
	</person>
	<person id="42">
		<plan selected="yes">
			<act type="h" x="427583.94400232314" y="5706135.083179524" end_time="08:00:00" />
			<leg mode="car" />
			<act type="h" x="315805.6838019326" y="5746986.01383846" />
		</plan>
	</person>
	<person id="43">
		<plan selected="yes">
			<act type="h" x="375969.4673533918" y="5727038.895828978" end_time="08:00:00" />
			<leg mode="car" />
			<act type="h" x="449365.4437259294" y="5881075.851597527" />
		</plan>
	</person>
	<person id="44">
		<plan selected="yes">
			<act type="h" x="399248.28144444874" y="5842995.383705079" end_time="08:00:00" />
			<leg mode="car" />
			<act type="h" x="359063.6470341266" y="5766901.6543320995" />
		</plan>
	</person>
	<person id="45">
		<plan selected="yes">
			<act type="h" x="342762.20086696267" y="5692922.034924555" end_time="08:00:00" />
			<leg mode="car" />
			<act type="h" x="391698.3278906614" y="5829562.710882125" />
		</plan>
	</person>
	<person id="46">
		<plan selected="yes">
			<act type="h" x="431644.360331372" y="5760496.169499017" end_time="08:00:00" />
			<leg mode="car" />
			<act type="h" x="320003.18372925173" y="5691892.449416684" />
		</plan>
	</person>
	<person id="47">
		<plan selected="yes">
			<act type="h" x="316927.116407486" y="5690384.763285225" end_time="08:00:00" />
			<leg mode="car" />
			<act type="h" x="329954.5546961808" y="5890325.954914245" />
		</plan>
	</person>
	<person id="48">
		<plan selected="yes">
			<act type="h" x="474850.3267796587" y="5713670.010020464" end_time="08:00:00" />
			<leg mode="car" />
			<act type="h" x="301183.74271232355" y="5702913.118999717" />
		</plan>
	</person>
	<person id="49">
		<plan selected="yes">
			<act type="h" x="356008.4713458341" y="5714575.057730571" end_time="08:00:00" />
			<leg mode="car" />
			<act type="h" x="322658.5190544252" y="5693413.04905573" />
		</plan>
	</person>
	<person id="50">
		<plan selected="yes">
			<act type="h" x="316942.5645042324" y="5694933.111474589" end_time="08:00:00" />
			<leg mode="car" />
			<act type="h" x="381800.1417485478" y="5750811.435631689" />
		</plan>
	</person>
	<person id="51">
		<plan selected="yes">
			<act type="h" x="322426.40170016873" y="5733543.712760756" end_time="08:00:00" />
			<leg mode="car" />
			<act type="h" x="462720.19494170544" y="5875152.631153439" />
		</plan>
	</person>
	<person id="52">
		<plan selected="yes">
			<act type="h" x="318464.76249305805" y="5697171.478705096" end_time="08:00:00" />
			<leg mode="car" />
			<act type="h" x="386269.5751753708" y="5824713.728179749" />
		</plan>
	</person>
	<person id="53">
		<plan selected="yes">
			<act type="h" x="318308.7667652752" y="5698262.878830334" end_time="08:00:00" />
			<leg mode="car" />
			<act type="h" x="308725.66027155425" y="5753021.111147557" />
		</plan>
	</person>
	<person id="54">
		<plan selected="yes">
			<act type="h" x="299229.9573291902" y="5829892.2255159" end_time="08:00:00" />
			<leg mode="car" />
			<act type="h" x="317750.50249885966" y="5691288.7683238285" />
		</plan>
	</person>
	<person id="55">
		<plan selected="yes">
			<act type="h" x="311891.9725448414" y="5691027.29244211" end_time="08:00:00" />
			<leg mode="car" />
			<act type="h" x="328223.39687947795" y="5692177.492906912" />
		</plan>
	</person>
	<person id="56">
		<plan selected="yes">
			<act type="h" x="277352.9837863321" y="5781106.650957824" end_time="08:00:00" />
			<leg mode="car" />
			<act type="h" x="331380.69400245603" y="5778521.833860664" />
		</plan>
	</person>
	<person id="57">
		<plan selected="yes">
			<act type="h" x="356008.4713458341" y="5714575.057730571" end_time="08:00:00" />
			<leg mode="car" />
			<act type="h" x="339362.1184251432" y="5771045.521100645" />
		</plan>
	</person>
	<person id="58">
		<plan selected="yes">
			<act type="h" x="476675.8335504869" y="5828981.03456653" end_time="08:00:00" />
			<leg mode="car" />
			<act type="h" x="276378.70897072594" y="5781359.869525217" />
		</plan>
	</person>
	<person id="59">
		<plan selected="yes">
			<act type="h" x="473209.8589433709" y="5729136.443932362" end_time="08:00:00" />
			<leg mode="car" />
			<act type="h" x="327920.37896800553" y="5859596.671067228" />
		</plan>
	</person>
	<person id="60">
		<plan selected="yes">
			<act type="h" x="423298.569234764" y="5748043.682191783" end_time="08:00:00" />
			<leg mode="car" />
			<act type="h" x="386282.1254930506" y="5824703.977413395" />
		</plan>
	</person>
	<person id="61">
		<plan selected="yes">
			<act type="h" x="342439.84697331337" y="5869927.19084566" end_time="08:00:00" />
			<leg mode="car" />
			<act type="h" x="417052.0712946721" y="5719113.882906201" />
		</plan>
	</person>
	<person id="62">
		<plan selected="yes">
			<act type="h" x="389969.4288010874" y="5811076.759190797" end_time="08:00:00" />
			<leg mode="car" />
			<act type="h" x="399209.9867348826" y="5806312.540944293" />
		</plan>
	</person>
	<person id="63">
		<plan selected="yes">
			<act type="h" x="399654.65351398673" y="5805542.805624052" end_time="08:00:00" />
			<leg mode="car" />
			<act type="h" x="349774.2653571565" y="5728520.2530849455" />
		</plan>
	</person>
	<person id="64">
		<plan selected="yes">
			<act type="h" x="390556.8273652959" y="5814451.383853218" end_time="08:00:00" />
			<leg mode="car" />
			<act type="h" x="380699.8061333858" y="5791350.423540033" />
		</plan>
	</person>
	<person id="65">
		<plan selected="yes">
			<act type="h" x="318682.987787631" y="5698108.618642314" end_time="08:00:00" />
			<leg mode="car" />
			<act type="h" x="472827.3660914514" y="5717647.608782759" />
		</plan>
	</person>
	<person id="66">
		<plan selected="yes">
			<act type="h" x="401045.3810157494" y="5806511.141477531" end_time="08:00:00" />
			<leg mode="car" />
			<act type="h" x="318997.05352970154" y="5693241.470487963" />
		</plan>
	</person>
	<person id="67">
		<plan selected="yes">
			<act type="h" x="274130.95473429933" y="5764731.312943893" end_time="08:00:00" />
			<leg mode="car" />
			<act type="h" x="400961.4839447243" y="5806451.95609419" />
		</plan>
	</person>
	<person id="68">
		<plan selected="yes">
			<act type="h" x="392374.43990911765" y="5747277.087365891" end_time="08:00:00" />
			<leg mode="car" />
			<act type="h" x="376775.42877449805" y="5874511.188554753" />
		</plan>
	</person>
	<person id="69">
		<plan selected="yes">
			<act type="h" x="374447.0871520276" y="5740242.096879569" end_time="08:00:00" />
			<leg mode="car" />
			<act type="h" x="414919.70776515466" y="5720530.839791738" />
		</plan>
	</person>
	<person id="70">
		<plan selected="yes">
			<act type="h" x="395479.6208238192" y="5881829.683759551" end_time="08:00:00" />
			<leg mode="car" />
			<act type="h" x="291923.48846535024" y="5791563.482445454" />
		</plan>
	</person>
	<person id="71">
		<plan selected="yes">
			<act type="h" x="303048.31674610433" y="5692222.020700269" end_time="08:00:00" />
			<leg mode="car" />
			<act type="h" x="312863.2304060041" y="5792384.8026676485" />
		</plan>
	</person>
	<person id="72">
		<plan selected="yes">
			<act type="h" x="378137.56163711497" y="5819454.425844843" end_time="08:00:00" />
			<leg mode="car" />
			<act type="h" x="391774.9114593209" y="5829309.113590428" />
		</plan>
	</person>
	<person id="73">
		<plan selected="yes">
			<act type="h" x="328387.517541536" y="5858790.180933431" end_time="08:00:00" />
			<leg mode="car" />
			<act type="h" x="361212.0551778509" y="5787368.980497345" />
		</plan>
	</person>
	<person id="74">
		<plan selected="yes">
			<act type="h" x="429818.91423982865" y="5760028.378844306" end_time="08:00:00" />
			<leg mode="car" />
			<act type="h" x="318238.6582739578" y="5691605.881261284" />
		</plan>
	</person>
	<person id="75">
		<plan selected="yes">
			<act type="h" x="401434.06179718813" y="5818711.725936533" end_time="08:00:00" />
			<leg mode="car" />
			<act type="h" x="340756.1021516629" y="5748446.896283661" />
		</plan>
	</person>
	<person id="76">
		<plan selected="yes">
			<act type="h" x="290516.63308639394" y="5706745.524390114" end_time="08:00:00" />
			<leg mode="car" />
			<act type="h" x="351456.30581468286" y="5852787.299642203" />
		</plan>
	</person>
	<person id="77">
		<plan selected="yes">
			<act type="h" x="457753.2477725853" y="5895732.730230336" end_time="08:00:00" />
			<leg mode="car" />
			<act type="h" x="484661.0457632925" y="5698952.915822733" />
		</plan>
	</person>
	<person id="78">
		<plan selected="yes">
			<act type="h" x="284778.4575646586" y="5707012.336128726" end_time="08:00:00" />
			<leg mode="car" />
			<act type="h" x="477596.6052233661" y="5711328.135062594" />
		</plan>
	</person>
	<person id="79">
		<plan selected="yes">
			<act type="h" x="468078.105596354" y="5800474.537969138" end_time="08:00:00" />
			<leg mode="car" />
			<act type="h" x="398299.3621851895" y="5805163.0445380565" />
		</plan>
	</person>
	<person id="80">
		<plan selected="yes">
			<act type="h" x="361168.8173968863" y="5824918.869315344" end_time="08:00:00" />
			<leg mode="car" />
			<act type="h" x="424536.4766899541" y="5745904.912462668" />
		</plan>
	</person>
	<person id="81">
		<plan selected="yes">
			<act type="h" x="391935.5926629757" y="5803073.296530217" end_time="08:00:00" />
			<leg mode="car" />
			<act type="h" x="358172.0131352236" y="5833324.68765646" />
		</plan>
	</person>
	<person id="82">
		<plan selected="yes">
			<act type="h" x="347212.4319959402" y="5801208.369663494" end_time="08:00:00" />
			<leg mode="car" />
			<act type="h" x="449709.2205842104" y="5727200.219081356" />
		</plan>
	</person>
	<person id="83">
		<plan selected="yes">
			<act type="h" x="478031.78459994146" y="5761998.8752082335" end_time="08:00:00" />
			<leg mode="car" />
			<act type="h" x="351317.03528188705" y="5852572.257835217" />
		</plan>
	</person>
	<person id="84">
		<plan selected="yes">
			<act type="h" x="456284.6153667259" y="5736539.62443597" end_time="08:00:00" />
			<leg mode="car" />
			<act type="h" x="318447.32370403694" y="5697166.5780592365" />
		</plan>
	</person>
	<person id="85">
		<plan selected="yes">
			<act type="h" x="418054.0954712964" y="5810087.410377125" end_time="08:00:00" />
			<leg mode="car" />
			<act type="h" x="457160.7894464387" y="5747102.9257396525" />
		</plan>
	</person>
	<person id="86">
		<plan selected="yes">
			<act type="h" x="391569.260700001" y="5819136.722713992" end_time="08:00:00" />
			<leg mode="car" />
			<act type="h" x="318377.8006832453" y="5698126.501886724" />
		</plan>
	</person>
	<person id="87">
		<plan selected="yes">
			<act type="h" x="328511.09715222695" y="5864116.137462243" end_time="08:00:00" />
			<leg mode="car" />
			<act type="h" x="364223.4701702341" y="5809832.571590438" />
		</plan>
	</person>
	<person id="88">
		<plan selected="yes">
			<act type="h" x="332090.63412882574" y="5811296.747819025" end_time="08:00:00" />
			<leg mode="car" />
			<act type="h" x="468507.9595631986" y="5721505.053860847" />
		</plan>
	</person>
	<person id="89">
		<plan selected="yes">
			<act type="h" x="297511.0859252752" y="5729882.5590952635" end_time="08:00:00" />
			<leg mode="car" />
			<act type="h" x="355477.85511590354" y="5868379.846672945" />
		</plan>
	</person>
	<person id="90">
		<plan selected="yes">
			<act type="h" x="393296.01363005076" y="5819919.5141717605" end_time="08:00:00" />
			<leg mode="car" />
			<act type="h" x="428144.8200092452" y="5796253.635883392" />
		</plan>
	</person>
	<person id="91">
		<plan selected="yes">
			<act type="h" x="350416.0853371971" y="5744057.773253731" end_time="08:00:00" />
			<leg mode="car" />
			<act type="h" x="309955.6851089698" y="5752040.937618658" />
		</plan>
	</person>
	<person id="92">
		<plan selected="yes">
			<act type="h" x="390277.7965059476" y="5812025.216509733" end_time="08:00:00" />
			<leg mode="car" />
			<act type="h" x="310479.09134959977" y="5697452.17216588" />
		</plan>
	</person>
	<person id="93">
		<plan selected="yes">
			<act type="h" x="349639.17646109866" y="5767576.188747745" end_time="08:00:00" />
			<leg mode="car" />
			<act type="h" x="394316.28085098695" y="5822611.7681827" />
		</plan>
	</person>
	<person id="94">
		<plan selected="yes">
			<act type="h" x="391699.80764461454" y="5823919.679319794" end_time="08:00:00" />
			<leg mode="car" />
			<act type="h" x="284278.65029544977" y="5698420.988207768" />
		</plan>
	</person>
	<person id="95">
		<plan selected="yes">
			<act type="h" x="467568.98219510785" y="5746335.047832846" end_time="08:00:00" />
			<leg mode="car" />
			<act type="h" x="305538.47567089763" y="5698337.842407363" />
		</plan>
	</person>
	<person id="96">
		<plan selected="yes">
			<act type="h" x="362857.5498284538" y="5831271.267108101" end_time="08:00:00" />
			<leg mode="car" />
			<act type="h" x="364912.6195805863" y="5707462.026184164" />
		</plan>
	</person>
	<person id="97">
		<plan selected="yes">
			<act type="h" x="381147.3503929957" y="5834490.269672252" end_time="08:00:00" />
			<leg mode="car" />
			<act type="h" x="359907.29169946484" y="5896503.976488707" />
		</plan>
	</person>
	<person id="98">
		<plan selected="yes">
			<act type="h" x="399373.20751551" y="5809534.997352299" end_time="08:00:00" />
			<leg mode="car" />
			<act type="h" x="313360.987326795" y="5899870.6977366" />
		</plan>
	</person>
	<person id="99">
		<plan selected="yes">
			<act type="h" x="424156.9190756457" y="5709400.377363347" end_time="08:00:00" />
			<leg mode="car" />
			<act type="h" x="370534.811075715" y="5796447.123292638" />
		</plan>
	</person>
	<person id="100">
		<plan selected="yes">
			<act type="h" x="353980.05352730275" y="5773346.5262418585" end_time="08:00:00" />
			<leg mode="car" />
			<act type="h" x="408323.78318109066" y="5723246.38529602" />
		</plan>
	</person>
</plans>
