<?xml version="1.0" ?>
<!DOCTYPE plans SYSTEM "http://www.matsim.org/files/dtd/plans_v4.dtd">
<plans xml:lang="de-CH"><person id="1"><plan selected="yes"><act type="h" x="398604.1601615672" y="5818888.765954903" end_time="01:00:00" /><leg mode="car" /><act type="h" x="337941.01758547657" y="5742224.074088146" /></plan></person><person id="2"><plan selected="yes"><act type="h" x="292799.63391416264" y="5706874.6940055555" end_time="01:00:00" /><leg mode="car" /><act type="h" x="485478.52574595535" y="5851598.880415399" /></plan></person><person id="3"><plan selected="yes"><act type="h" x="380869.298162957" y="5850836.7703785105" end_time="01:00:00" /><leg mode="car" /><act type="h" x="393948.0195953949" y="5821628.41277464" /></plan></person><person id="4"><plan selected="yes"><act type="h" x="373431.3063345792" y="5742157.35972374" end_time="01:00:00" /><leg mode="car" /><act type="h" x="290451.9274636019" y="5708778.045151045" /></plan></person><person id="5"><plan selected="yes"><act type="h" x="401424.36254754825" y="5818703.064111103" end_time="01:00:00" /><leg mode="car" /><act type="h" x="452373.78986147925" y="5690118.81194357" /></plan></person><person id="6"><plan selected="yes"><act type="h" x="361444.1040588523" y="5787739.008117812" end_time="01:00:00" /><leg mode="car" /><act type="h" x="391636.8145048251" y="5876827.454059539" /></plan></person><person id="7"><plan selected="yes"><act type="h" x="351259.85904699593" y="5785570.60053036" end_time="01:00:00" /><leg mode="car" /><act type="h" x="391040.9410141515" y="5831061.835085254" /></plan></person><person id="8"><plan selected="yes"><act type="h" x="392704.2232214445" y="5820676.895983859" end_time="01:00:00" /><leg mode="car" /><act type="h" x="453583.02257074387" y="5806392.771173627" /></plan></person><person id="9"><plan selected="yes"><act type="h" x="472851.3440162867" y="5729140.00721183" end_time="01:00:00" /><leg mode="car" /><act type="h" x="410440.13966439274" y="5823017.5780869955" /></plan></person><person id="10"><plan selected="yes"><act type="h" x="475737.8839263201" y="5824924.069532265" end_time="01:00:00" /><leg mode="car" /><act type="h" x="280230.5993891952" y="5743123.991963989" /></plan></person></plans>