<?xml version="1.0" ?>
<!DOCTYPE plans SYSTEM "http://www.matsim.org/files/dtd/plans_v4.dtd">
<plans xml:lang="de-CH"><person id="1"><plan selected="yes"><act type="h" x="-14440674.502218407" y="3986529.1946065384" end_time="08:00:00" /><leg mode="car" /><act type="w" x="-14439647.187721696" y="3966486.201646414" start_time="08:30:00" end_time="17:00:00" /><leg mode="car" /><act type="h" x="-14440674.502218407" y="3986529.1946065384" /></plan></person><person id="2"><plan selected="yes"><act type="h" x="-14449100.757379277" y="3988357.2955280636" end_time="08:00:00" /><leg mode="car" /><act type="w" x="-14439108.096431434" y="3974041.6991694667" start_time="08:30:00" end_time="17:00:00" /><leg mode="car" /><act type="h" x="-14449100.757379277" y="3988357.2955280636" /></plan></person><person id="3"><plan selected="yes"><act type="h" x="-14440145.638573213" y="4006135.4308221526" end_time="08:00:00" /><leg mode="car" /><act type="w" x="-14458852.694118269" y="4016047.1767090005" start_time="08:30:00" end_time="17:00:00" /><leg mode="car" /><act type="h" x="-14440145.638573213" y="4006135.4308221526" /></plan></person><person id="4"><plan selected="yes"><act type="h" x="-14444413.16238994" y="4008084.497464282" end_time="08:00:00" /><leg mode="car" /><act type="w" x="-14419280.837082606" y="3949863.435177021" start_time="08:30:00" end_time="17:00:00" /><leg mode="car" /><act type="h" x="-14444413.16238994" y="4008084.497464282" /></plan></person><person id="5"><plan selected="yes"><act type="h" x="-14447239.29064222" y="3975509.13234012" end_time="08:00:00" /><leg mode="car" /><act type="w" x="-14453405.266668806" y="3984368.600427837" start_time="08:30:00" end_time="17:00:00" /><leg mode="car" /><act type="h" x="-14447239.29064222" y="3975509.13234012" /></plan></person><person id="6"><plan selected="yes"><act type="h" x="-14394351.302107204" y="3964047.602597313" end_time="08:00:00" /><leg mode="car" /><act type="w" x="-14447102.741019303" y="3971718.620842489" start_time="08:30:00" end_time="17:00:00" /><leg mode="car" /><act type="h" x="-14394351.302107204" y="3964047.602597313" /></plan></person><person id="7"><plan selected="yes"><act type="h" x="-14390672.740935888" y="3924148.968144683" end_time="08:00:00" /><leg mode="car" /><act type="w" x="-14402283.021398557" y="3988929.998900424" start_time="08:30:00" end_time="17:00:00" /><leg mode="car" /><act type="h" x="-14390672.740935888" y="3924148.968144683" /></plan></person><person id="8"><plan selected="yes"><act type="h" x="-14390818.04072979" y="3966804.1003160374" end_time="08:00:00" /><leg mode="car" /><act type="w" x="-14440358.987209104" y="4007324.4493982377" start_time="08:30:00" end_time="17:00:00" /><leg mode="car" /><act type="h" x="-14390818.04072979" y="3966804.1003160374" /></plan></person><person id="9"><plan selected="yes"><act type="h" x="-14454759.031386552" y="3977883.0390296876" end_time="08:00:00" /><leg mode="car" /><act type="w" x="-14450925.260228831" y="4013169.596124444" start_time="08:30:00" end_time="17:00:00" /><leg mode="car" /><act type="h" x="-14454759.031386552" y="3977883.0390296876" /></plan></person><person id="10"><plan selected="yes"><act type="h" x="-14391482.849994572" y="3924345.551699204" end_time="08:00:00" /><leg mode="car" /><act type="w" x="-14457859.035870293" y="4040912.160109367" start_time="08:30:00" end_time="17:00:00" /><leg mode="car" /><act type="h" x="-14391482.849994572" y="3924345.551699204" /></plan></person><person id="11"><plan selected="yes"><act type="h" x="-14441376.673570037" y="3989840.1944717634" end_time="08:00:00" /><leg mode="car" /><act type="w" x="-14445229.999436129" y="3989242.73663803" start_time="08:30:00" end_time="17:00:00" /><leg mode="car" /><act type="h" x="-14441376.673570037" y="3989840.1944717634" /></plan></person><person id="12"><plan selected="yes"><act type="h" x="-14447256.897702007" y="3974383.5209085196" end_time="08:00:00" /><leg mode="car" /><act type="w" x="-14452712.79138284" y="3973634.330580732" start_time="08:30:00" end_time="17:00:00" /><leg mode="car" /><act type="h" x="-14447256.897702007" y="3974383.5209085196" /></plan></person><person id="13"><plan selected="yes"><act type="h" x="-14447270.148285855" y="3973962.1223545824" end_time="08:00:00" /><leg mode="car" /><act type="w" x="-14445629.947306536" y="4022803.8738463167" start_time="08:30:00" end_time="17:00:00" /><leg mode="car" /><act type="h" x="-14447270.148285855" y="3973962.1223545824" /></plan></person><person id="14"><plan selected="yes"><act type="h" x="-14443428.696752038" y="3979248.575431635" end_time="08:00:00" /><leg mode="car" /><act type="w" x="-14383462.383218572" y="3924460.4468470276" start_time="08:30:00" end_time="17:00:00" /><leg mode="car" /><act type="h" x="-14443428.696752038" y="3979248.575431635" /></plan></person><person id="15"><plan selected="yes"><act type="h" x="-14445125.059138289" y="3989870.244121805" end_time="08:00:00" /><leg mode="car" /><act type="w" x="-14447987.831058942" y="3979712.932833923" start_time="08:30:00" end_time="17:00:00" /><leg mode="car" /><act type="h" x="-14445125.059138289" y="3989870.244121805" /></plan></person><person id="16"><plan selected="yes"><act type="h" x="-14387404.20524038" y="3970961.9234592714" end_time="08:00:00" /><leg mode="car" /><act type="w" x="-14391095.480062298" y="3980718.8447670205" start_time="08:30:00" end_time="17:00:00" /><leg mode="car" /><act type="h" x="-14387404.20524038" y="3970961.9234592714" /></plan></person><person id="17"><plan selected="yes"><act type="h" x="-14440075.275401194" y="3986095.5605881014" end_time="08:00:00" /><leg mode="car" /><act type="w" x="-14445189.436390093" y="3983733.872480428" start_time="08:30:00" end_time="17:00:00" /><leg mode="car" /><act type="h" x="-14440075.275401194" y="3986095.5605881014" /></plan></person><person id="18"><plan selected="yes"><act type="h" x="-14441642.997161359" y="4007606.865071045" end_time="08:00:00" /><leg mode="car" /><act type="w" x="-14424304.224976" y="3954169.6873194813" start_time="08:30:00" end_time="17:00:00" /><leg mode="car" /><act type="h" x="-14441642.997161359" y="4007606.865071045" /></plan></person><person id="19"><plan selected="yes"><act type="h" x="-14453366.255278265" y="3985550.931209976" end_time="08:00:00" /><leg mode="car" /><act type="w" x="-14410234.39603427" y="3937947.470767239" start_time="08:30:00" end_time="17:00:00" /><leg mode="car" /><act type="h" x="-14453366.255278265" y="3985550.931209976" /></plan></person><person id="20"><plan selected="yes"><act type="h" x="-14438442.486521024" y="3965227.493991546" end_time="08:00:00" /><leg mode="car" /><act type="w" x="-14395337.423429424" y="4013343.9798441385" start_time="08:30:00" end_time="17:00:00" /><leg mode="car" /><act type="h" x="-14438442.486521024" y="3965227.493991546" /></plan></person><person id="21"><plan selected="yes"><act type="h" x="-14452393.66995059" y="4014228.3777371612" end_time="08:00:00" /><leg mode="car" /><act type="w" x="-14361947.464765158" y="3920198.422991427" start_time="08:30:00" end_time="17:00:00" /><leg mode="car" /><act type="h" x="-14452393.66995059" y="4014228.3777371612" /></plan></person><person id="22"><plan selected="yes"><act type="h" x="-14450369.6913125" y="4054248.09339929" end_time="08:00:00" /><leg mode="car" /><act type="w" x="-14472486.555144789" y="3984640.3634868255" start_time="08:30:00" end_time="17:00:00" /><leg mode="car" /><act type="h" x="-14450369.6913125" y="4054248.09339929" /></plan></person><person id="23"><plan selected="yes"><act type="h" x="-14401365.210576598" y="3958039.3430738356" end_time="08:00:00" /><leg mode="car" /><act type="w" x="-14441216.458244987" y="3991646.114632895" start_time="08:30:00" end_time="17:00:00" /><leg mode="car" /><act type="h" x="-14401365.210576598" y="3958039.3430738356" /></plan></person><person id="24"><plan selected="yes"><act type="h" x="-14453627.803777518" y="3985742.969264164" end_time="08:00:00" /><leg mode="car" /><act type="w" x="-14456832.018510353" y="4015520.7053625076" start_time="08:30:00" end_time="17:00:00" /><leg mode="car" /><act type="h" x="-14453627.803777518" y="3985742.969264164" /></plan></person><person id="25"><plan selected="yes"><act type="h" x="-14357415.315586893" y="3947928.4375741547" end_time="08:00:00" /><leg mode="car" /><act type="w" x="-14416498.607054565" y="3989547.4903996657" start_time="08:30:00" end_time="17:00:00" /><leg mode="car" /><act type="h" x="-14357415.315586893" y="3947928.4375741547" /></plan></person><person id="26"><plan selected="yes"><act type="h" x="-14445207.376810096" y="3990494.6786994287" end_time="08:00:00" /><leg mode="car" /><act type="w" x="-14411801.101336546" y="3943747.1357901134" start_time="08:30:00" end_time="17:00:00" /><leg mode="car" /><act type="h" x="-14445207.376810096" y="3990494.6786994287" /></plan></person><person id="27"><plan selected="yes"><act type="h" x="-14445058.789573392" y="4008944.5707487967" end_time="08:00:00" /><leg mode="car" /><act type="w" x="-14436597.802182198" y="3986286.714326228" start_time="08:30:00" end_time="17:00:00" /><leg mode="car" /><act type="h" x="-14445058.789573392" y="4008944.5707487967" /></plan></person><person id="28"><plan selected="yes"><act type="h" x="-14410319.668879526" y="3939965.784096636" end_time="08:00:00" /><leg mode="car" /><act type="w" x="-14387440.464056028" y="3970856.461980352" start_time="08:30:00" end_time="17:00:00" /><leg mode="car" /><act type="h" x="-14410319.668879526" y="3939965.784096636" /></plan></person><person id="29"><plan selected="yes"><act type="h" x="-14448227.104261987" y="4056408.7925501135" end_time="08:00:00" /><leg mode="car" /><act type="w" x="-14470257.430063121" y="4069142.2750091795" start_time="08:30:00" end_time="17:00:00" /><leg mode="car" /><act type="h" x="-14448227.104261987" y="4056408.7925501135" /></plan></person><person id="30"><plan selected="yes"><act type="h" x="-14393817.764148429" y="3965059.287959999" end_time="08:00:00" /><leg mode="car" /><act type="w" x="-14447013.462529879" y="3986380.7096823254" start_time="08:30:00" end_time="17:00:00" /><leg mode="car" /><act type="h" x="-14393817.764148429" y="3965059.287959999" /></plan></person><person id="31"><plan selected="yes"><act type="h" x="-14411813.081982775" y="3943842.1635721093" end_time="08:00:00" /><leg mode="car" /><act type="w" x="-14441660.047488613" y="4010460.2020545495" start_time="08:30:00" end_time="17:00:00" /><leg mode="car" /><act type="h" x="-14411813.081982775" y="3943842.1635721093" /></plan></person><person id="32"><plan selected="yes"><act type="h" x="-14447838.29706963" y="4011442.5046344367" end_time="08:00:00" /><leg mode="car" /><act type="w" x="-14453226.016452001" y="4019852.9200467924" start_time="08:30:00" end_time="17:00:00" /><leg mode="car" /><act type="h" x="-14447838.29706963" y="4011442.5046344367" /></plan></person><person id="33"><plan selected="yes"><act type="h" x="-14449091.233524952" y="3989103.375382601" end_time="08:00:00" /><leg mode="car" /><act type="w" x="-14419284.341397498" y="3950221.153299046" start_time="08:30:00" end_time="17:00:00" /><leg mode="car" /><act type="h" x="-14449091.233524952" y="3989103.375382601" /></plan></person><person id="34"><plan selected="yes"><act type="h" x="-14466971.488612965" y="4078505.0325065386" end_time="08:00:00" /><leg mode="car" /><act type="w" x="-14365180.777878648" y="3950652.82803811" start_time="08:30:00" end_time="17:00:00" /><leg mode="car" /><act type="h" x="-14466971.488612965" y="4078505.0325065386" /></plan></person><person id="35"><plan selected="yes"><act type="h" x="-14445216.734361943" y="3984199.8747260156" end_time="08:00:00" /><leg mode="car" /><act type="w" x="-14474101.016277388" y="4077668.179195393" start_time="08:30:00" end_time="17:00:00" /><leg mode="car" /><act type="h" x="-14445216.734361943" y="3984199.8747260156" /></plan></person><person id="36"><plan selected="yes"><act type="h" x="-14443893.516502839" y="4008002.8534376845" end_time="08:00:00" /><leg mode="car" /><act type="w" x="-14418385.026633492" y="3947676.822224379" start_time="08:30:00" end_time="17:00:00" /><leg mode="car" /><act type="h" x="-14443893.516502839" y="4008002.8534376845" /></plan></person><person id="37"><plan selected="yes"><act type="h" x="-14454819.949670963" y="4020978.24623358" end_time="08:00:00" /><leg mode="car" /><act type="w" x="-14454992.431564398" y="4024445.122790273" start_time="08:30:00" end_time="17:00:00" /><leg mode="car" /><act type="h" x="-14454819.949670963" y="4020978.24623358" /></plan></person><person id="38"><plan selected="yes"><act type="h" x="-14439359.480208678" y="3974971.4546710467" end_time="08:00:00" /><leg mode="car" /><act type="w" x="-14396984.63898607" y="3989847.1325826426" start_time="08:30:00" end_time="17:00:00" /><leg mode="car" /><act type="h" x="-14439359.480208678" y="3974971.4546710467" /></plan></person><person id="39"><plan selected="yes"><act type="h" x="-14439019.768862668" y="3973864.8923810613" end_time="08:00:00" /><leg mode="car" /><act type="w" x="-14441916.91424807" y="3966284.630969795" start_time="08:30:00" end_time="17:00:00" /><leg mode="car" /><act type="h" x="-14439019.768862668" y="3973864.8923810613" /></plan></person><person id="40"><plan selected="yes"><act type="h" x="-14442817.372662976" y="4020137.533600979" end_time="08:00:00" /><leg mode="car" /><act type="w" x="-14441668.208593503" y="3986439.970559207" start_time="08:30:00" end_time="17:00:00" /><leg mode="car" /><act type="h" x="-14442817.372662976" y="4020137.533600979" /></plan></person><person id="41"><plan selected="yes"><act type="h" x="-14447295.054303404" y="3977216.298208808" end_time="08:00:00" /><leg mode="car" /><act type="w" x="-14445161.132972285" y="3983799.5767093473" start_time="08:30:00" end_time="17:00:00" /><leg mode="car" /><act type="h" x="-14447295.054303404" y="3977216.298208808" /></plan></person><person id="42"><plan selected="yes"><act type="h" x="-14451574.618387518" y="4024311.059890521" end_time="08:00:00" /><leg mode="car" /><act type="w" x="-14472782.822931493" y="3984570.6818091967" start_time="08:30:00" end_time="17:00:00" /><leg mode="car" /><act type="h" x="-14451574.618387518" y="4024311.059890521" /></plan></person><person id="43"><plan selected="yes"><act type="h" x="-14442770.388902603" y="3993822.0620086514" end_time="08:00:00" /><leg mode="car" /><act type="w" x="-14394225.37865339" y="3964067.087193405" start_time="08:30:00" end_time="17:00:00" /><leg mode="car" /><act type="h" x="-14442770.388902603" y="3993822.0620086514" /></plan></person><person id="44"><plan selected="yes"><act type="h" x="-14439930.822371723" y="3978706.0024605817" end_time="08:00:00" /><leg mode="car" /><act type="w" x="-14453208.178061677" y="3983297.901965549" start_time="08:30:00" end_time="17:00:00" /><leg mode="car" /><act type="h" x="-14439930.822371723" y="3978706.0024605817" /></plan></person><person id="45"><plan selected="yes"><act type="h" x="-14419679.45899285" y="3951968.613465502" end_time="08:00:00" /><leg mode="car" /><act type="w" x="-14431565.527191792" y="3957592.852564581" start_time="08:30:00" end_time="17:00:00" /><leg mode="car" /><act type="h" x="-14419679.45899285" y="3951968.613465502" /></plan></person><person id="46"><plan selected="yes"><act type="h" x="-14442541.832136441" y="4011865.2826067973" end_time="08:00:00" /><leg mode="car" /><act type="w" x="-14419351.726964273" y="3951470.414691976" start_time="08:30:00" end_time="17:00:00" /><leg mode="car" /><act type="h" x="-14442541.832136441" y="4011865.2826067973" /></plan></person><person id="47"><plan selected="yes"><act type="h" x="-14380300.15893149" y="3924211.79882468" end_time="08:00:00" /><leg mode="car" /><act type="w" x="-14450482.326448262" y="4063693.0990196904" start_time="08:30:00" end_time="17:00:00" /><leg mode="car" /><act type="h" x="-14380300.15893149" y="3924211.79882468" /></plan></person><person id="48"><plan selected="yes"><act type="h" x="-14459567.769925712" y="4016416.9530315897" end_time="08:00:00" /><leg mode="car" /><act type="w" x="-14415803.71762897" y="3945688.7987251873" start_time="08:30:00" end_time="17:00:00" /><leg mode="car" /><act type="h" x="-14459567.769925712" y="4016416.9530315897" /></plan></person><person id="49"><plan selected="yes"><act type="h" x="-14365919.493952904" y="3921911.62208922" end_time="08:00:00" /><leg mode="car" /><act type="w" x="-14445416.529423939" y="3994354.4794784347" start_time="08:30:00" end_time="17:00:00" /><leg mode="car" /><act type="h" x="-14365919.493952904" y="3921911.62208922" /></plan></person><person id="50"><plan selected="yes"><act type="h" x="-14419623.586361201" y="3951891.33016887" end_time="08:00:00" /><leg mode="car" /><act type="w" x="-14444846.621110527" y="3990028.2555637914" start_time="08:30:00" end_time="17:00:00" /><leg mode="car" /><act type="h" x="-14419623.586361201" y="3951891.33016887" /></plan></person><person id="51"><plan selected="yes"><act type="h" x="-14447998.044429474" y="4015468.1231441805" end_time="08:00:00" /><leg mode="car" /><act type="w" x="-14449339.75627862" y="3989606.568749988" start_time="08:30:00" end_time="17:00:00" /><leg mode="car" /><act type="h" x="-14447998.044429474" y="4015468.1231441805" /></plan></person><person id="52"><plan selected="yes"><act type="h" x="-14447535.070467263" y="3970441.2994099804" end_time="08:00:00" /><leg mode="car" /><act type="w" x="-14432383.888254173" y="3978698.5714619635" start_time="08:30:00" end_time="17:00:00" /><leg mode="car" /><act type="h" x="-14447535.070467263" y="3970441.2994099804" /></plan></person><person id="53"><plan selected="yes"><act type="h" x="-14351869.2852877" y="3920877.0419535" end_time="08:00:00" /><leg mode="car" /><act type="w" x="-14459488.004515385" y="4047170.932971972" start_time="08:30:00" end_time="17:00:00" /><leg mode="car" /><act type="h" x="-14351869.2852877" y="3920877.0419535" /></plan></person><person id="54"><plan selected="yes"><act type="h" x="-14406222.160781909" y="3954651.136828" end_time="08:00:00" /><leg mode="car" /><act type="w" x="-14440023.553306537" y="4007123.777857392" start_time="08:30:00" end_time="17:00:00" /><leg mode="car" /><act type="h" x="-14406222.160781909" y="3954651.136828" /></plan></person><person id="55"><plan selected="yes"><act type="h" x="-14447428.229349453" y="3978297.2604171378" end_time="08:00:00" /><leg mode="car" /><act type="w" x="-14441233.149894647" y="4009768.2374372245" start_time="08:30:00" end_time="17:00:00" /><leg mode="car" /><act type="h" x="-14447428.229349453" y="3978297.2604171378" /></plan></person><person id="56"><plan selected="yes"><act type="h" x="-14411553.126294443" y="3951714.5018960824" end_time="08:00:00" /><leg mode="car" /><act type="w" x="-14443909.417596886" y="4022926.020225199" start_time="08:30:00" end_time="17:00:00" /><leg mode="car" /><act type="h" x="-14411553.126294443" y="3951714.5018960824" /></plan></person><person id="57"><plan selected="yes"><act type="h" x="-14440141.289389273" y="3985955.009064961" end_time="08:00:00" /><leg mode="car" /><act type="w" x="-14438122.333930321" y="4074346.4826001897" start_time="08:30:00" end_time="17:00:00" /><leg mode="car" /><act type="h" x="-14440141.289389273" y="3985955.009064961" /></plan></person><person id="58"><plan selected="yes"><act type="h" x="-14445365.430675566" y="3992821.0810945607" end_time="08:00:00" /><leg mode="car" /><act type="w" x="-14393447.968344906" y="3925924.228568831" start_time="08:30:00" end_time="17:00:00" /><leg mode="car" /><act type="h" x="-14445365.430675566" y="3992821.0810945607" /></plan></person><person id="59"><plan selected="yes"><act type="h" x="-14416456.4581053" y="4016087.577407539" end_time="08:00:00" /><leg mode="car" /><act type="w" x="-14442792.550198847" y="3979263.6698382557" start_time="08:30:00" end_time="17:00:00" /><leg mode="car" /><act type="h" x="-14416456.4581053" y="4016087.577407539" /></plan></person><person id="60"><plan selected="yes"><act type="h" x="-14441531.754721455" y="3989957.8780643167" end_time="08:00:00" /><leg mode="car" /><act type="w" x="-14442805.337935356" y="4017910.3072491363" start_time="08:30:00" end_time="17:00:00" /><leg mode="car" /><act type="h" x="-14441531.754721455" y="3989957.8780643167" /></plan></person><person id="61"><plan selected="yes"><act type="h" x="-14445019.811635971" y="3987575.5465315348" end_time="08:00:00" /><leg mode="car" /><act type="w" x="-14445031.987158358" y="3982254.864274536" start_time="08:30:00" end_time="17:00:00" /><leg mode="car" /><act type="h" x="-14445019.811635971" y="3987575.5465315348" /></plan></person><person id="62"><plan selected="yes"><act type="h" x="-14439922.12563193" y="3962847.475939119" end_time="08:00:00" /><leg mode="car" /><act type="w" x="-14423824.210363002" y="3988358.8668362587" start_time="08:30:00" end_time="17:00:00" /><leg mode="car" /><act type="h" x="-14439922.12563193" y="3962847.475939119" /></plan></person><person id="63"><plan selected="yes"><act type="h" x="-14412023.467432138" y="3951434.5382880117" end_time="08:00:00" /><leg mode="car" /><act type="w" x="-14403210.810813466" y="3955911.09126771" start_time="08:30:00" end_time="17:00:00" /><leg mode="car" /><act type="h" x="-14412023.467432138" y="3951434.5382880117" /></plan></person><person id="64"><plan selected="yes"><act type="h" x="-14439674.114479495" y="3982076.2608290855" end_time="08:00:00" /><leg mode="car" /><act type="w" x="-14440662.64297823" y="4023232.9213315663" start_time="08:30:00" end_time="17:00:00" /><leg mode="car" /><act type="h" x="-14439674.114479495" y="3982076.2608290855" /></plan></person><person id="65"><plan selected="yes"><act type="h" x="-14442711.913025158" y="4016654.9496394508" end_time="08:00:00" /><leg mode="car" /><act type="w" x="-14447854.160991136" y="4015497.340633481" start_time="08:30:00" end_time="17:00:00" /><leg mode="car" /><act type="h" x="-14442711.913025158" y="4016654.9496394508" /></plan></person><person id="66"><plan selected="yes"><act type="h" x="-14453113.997812083" y="4027385.1330890837" end_time="08:00:00" /><leg mode="car" /><act type="w" x="-14472050.56532033" y="3984745.0160208577" start_time="08:30:00" end_time="17:00:00" /><leg mode="car" /><act type="h" x="-14453113.997812083" y="4027385.1330890837" /></plan></person><person id="67"><plan selected="yes"><act type="h" x="-14424029.791045705" y="3954040.339911867" end_time="08:00:00" /><leg mode="car" /><act type="w" x="-14442807.392666126" y="4018050.6537449583" start_time="08:30:00" end_time="17:00:00" /><leg mode="car" /><act type="h" x="-14424029.791045705" y="3954040.339911867" /></plan></person><person id="68"><plan selected="yes"><act type="h" x="-14441328.385819823" y="3986420.9694971587" end_time="08:00:00" /><leg mode="car" /><act type="w" x="-14389417.506534502" y="3924210.968871945" start_time="08:30:00" end_time="17:00:00" /><leg mode="car" /><act type="h" x="-14441328.385819823" y="3986420.9694971587" /></plan></person><person id="69"><plan selected="yes"><act type="h" x="-14393074.245762635" y="3995156.840038865" end_time="08:00:00" /><leg mode="car" /><act type="w" x="-14453739.099395324" y="4025675.3623819593" start_time="08:30:00" end_time="17:00:00" /><leg mode="car" /><act type="h" x="-14393074.245762635" y="3995156.840038865" /></plan></person><person id="70"><plan selected="yes"><act type="h" x="-14388148.88876396" y="4006153.197493487" end_time="08:00:00" /><leg mode="car" /><act type="w" x="-14425606.66838429" y="3954757.1269425475" start_time="08:30:00" end_time="17:00:00" /><leg mode="car" /><act type="h" x="-14388148.88876396" y="4006153.197493487" /></plan></person><person id="71"><plan selected="yes"><act type="h" x="-14365362.878407475" y="3921924.8345786138" end_time="08:00:00" /><leg mode="car" /><act type="w" x="-14411794.52225566" y="3942334.4282139908" start_time="08:30:00" end_time="17:00:00" /><leg mode="car" /><act type="h" x="-14365362.878407475" y="3921924.8345786138" /></plan></person><person id="72"><plan selected="yes"><act type="h" x="-14439020.215651486" y="3973977.6654417817" end_time="08:00:00" /><leg mode="car" /><act type="w" x="-14402208.21262437" y="4017519.037864952" start_time="08:30:00" end_time="17:00:00" /><leg mode="car" /><act type="h" x="-14439020.215651486" y="3973977.6654417817" /></plan></person><person id="73"><plan selected="yes"><act type="h" x="-14411576.303558247" y="3951696.8458267627" end_time="08:00:00" /><leg mode="car" /><act type="w" x="-14405830.406744365" y="3991280.8437591298" start_time="08:30:00" end_time="17:00:00" /><leg mode="car" /><act type="h" x="-14411576.303558247" y="3951696.8458267627" /></plan></person><person id="74"><plan selected="yes"><act type="h" x="-14439675.822385708" y="3980133.73426965" end_time="08:00:00" /><leg mode="car" /><act type="w" x="-14436286.988557195" y="4023645.3311086125" start_time="08:30:00" end_time="17:00:00" /><leg mode="car" /><act type="h" x="-14439675.822385708" y="3980133.73426965" /></plan></person><person id="75"><plan selected="yes"><act type="h" x="-14475369.38110843" y="4070551.11775532" end_time="08:00:00" /><leg mode="car" /><act type="w" x="-14454382.657460038" y="4026263.28505882" start_time="08:30:00" end_time="17:00:00" /><leg mode="car" /><act type="h" x="-14475369.38110843" y="4070551.11775532" /></plan></person><person id="76"><plan selected="yes"><act type="h" x="-14453342.141011836" y="4054406.6259582364" end_time="08:00:00" /><leg mode="car" /><act type="w" x="-14463864.106628055" y="3984408.9789522784" start_time="08:30:00" end_time="17:00:00" /><leg mode="car" /><act type="h" x="-14453342.141011836" y="4054406.6259582364" /></plan></person><person id="77"><plan selected="yes"><act type="h" x="-14442475.85681609" y="4014478.792686264" end_time="08:00:00" /><leg mode="car" /><act type="w" x="-14393964.275426343" y="3961058.446435183" start_time="08:30:00" end_time="17:00:00" /><leg mode="car" /><act type="h" x="-14442475.85681609" y="4014478.792686264" /></plan></person><person id="78"><plan selected="yes"><act type="h" x="-14454155.0895911" y="4020666.3745815414" end_time="08:00:00" /><leg mode="car" /><act type="w" x="-14438724.759426707" y="3971880.89707411" start_time="08:30:00" end_time="17:00:00" /><leg mode="car" /><act type="h" x="-14454155.0895911" y="4020666.3745815414" /></plan></person><person id="79"><plan selected="yes"><act type="h" x="-14438276.403624488" y="3978350.4989987607" end_time="08:00:00" /><leg mode="car" /><act type="w" x="-14454950.754335396" y="4021056.374974021" start_time="08:30:00" end_time="17:00:00" /><leg mode="car" /><act type="h" x="-14438276.403624488" y="3978350.4989987607" /></plan></person><person id="80"><plan selected="yes"><act type="h" x="-14403731.856909558" y="3931221.555491603" end_time="08:00:00" /><leg mode="car" /><act type="w" x="-14469157.870022353" y="4068788.4709478156" start_time="08:30:00" end_time="17:00:00" /><leg mode="car" /><act type="h" x="-14403731.856909558" y="3931221.555491603" /></plan></person><person id="81"><plan selected="yes"><act type="h" x="-14389576.966447059" y="4008916.0007211585" end_time="08:00:00" /><leg mode="car" /><act type="w" x="-14447410.166891651" y="3978170.7158940076" start_time="08:30:00" end_time="17:00:00" /><leg mode="car" /><act type="h" x="-14389576.966447059" y="4008916.0007211585" /></plan></person><person id="82"><plan selected="yes"><act type="h" x="-14459577.207445119" y="4052818.2168964925" end_time="08:00:00" /><leg mode="car" /><act type="w" x="-14394574.43435379" y="3993686.9564653374" start_time="08:30:00" end_time="17:00:00" /><leg mode="car" /><act type="h" x="-14459577.207445119" y="4052818.2168964925" /></plan></person><person id="83"><plan selected="yes"><act type="h" x="-14442817.972468665" y="4020084.3783776197" end_time="08:00:00" /><leg mode="car" /><act type="w" x="-14406664.676331786" y="3954256.1255398216" start_time="08:30:00" end_time="17:00:00" /><leg mode="car" /><act type="h" x="-14442817.972468665" y="4020084.3783776197" /></plan></person><person id="84"><plan selected="yes"><act type="h" x="-14447453.560826954" y="3978711.3726053443" end_time="08:00:00" /><leg mode="car" /><act type="w" x="-14454394.54116866" y="4014866.9693469442" start_time="08:30:00" end_time="17:00:00" /><leg mode="car" /><act type="h" x="-14447453.560826954" y="3978711.3726053443" /></plan></person><person id="85"><plan selected="yes"><act type="h" x="-14403782.606906502" y="3955799.469445688" end_time="08:00:00" /><leg mode="car" /><act type="w" x="-14444874.577433392" y="4009498.420712126" start_time="08:30:00" end_time="17:00:00" /><leg mode="car" /><act type="h" x="-14403782.606906502" y="3955799.469445688" /></plan></person><person id="86"><plan selected="yes"><act type="h" x="-14440140.461651163" y="3986306.910889833" end_time="08:00:00" /><leg mode="car" /><act type="w" x="-14439764.047041232" y="3977291.2974922047" start_time="08:30:00" end_time="17:00:00" /><leg mode="car" /><act type="h" x="-14440140.461651163" y="3986306.910889833" /></plan></person><person id="87"><plan selected="yes"><act type="h" x="-14362573.848514335" y="3921283.70042611" end_time="08:00:00" /><leg mode="car" /><act type="w" x="-14415281.24021214" y="4016538.736090141" start_time="08:30:00" end_time="17:00:00" /><leg mode="car" /><act type="h" x="-14362573.848514335" y="3921283.70042611" /></plan></person><person id="88"><plan selected="yes"><act type="h" x="-14411785.595469208" y="3943123.2294747313" end_time="08:00:00" /><leg mode="car" /><act type="w" x="-14454859.718871009" y="4032352.1678556846" start_time="08:30:00" end_time="17:00:00" /><leg mode="car" /><act type="h" x="-14411785.595469208" y="3943123.2294747313" /></plan></person><person id="89"><plan selected="yes"><act type="h" x="-14442221.6594999" y="4013037.4046110534" end_time="08:00:00" /><leg mode="car" /><act type="w" x="-14440309.815775948" y="4007